Version 4
SHEET 1 1768 1928
WIRE 304 -560 304 -608
WIRE -32 -480 -288 -480
WIRE 192 -480 -32 -480
WIRE 848 -480 416 -480
WIRE 304 -368 304 -416
WIRE 304 -128 304 -160
WIRE -112 -48 -208 -48
WIRE 192 -48 -112 -48
WIRE 752 -48 416 -48
WIRE 1056 48 1056 0
WIRE 304 80 304 16
WIRE 848 112 848 -480
WIRE 960 112 848 112
WIRE 1488 128 1152 128
WIRE 752 144 752 -48
WIRE 960 144 752 144
WIRE 1056 256 1056 208
WIRE 1040 560 1040 512
WIRE -32 624 -32 -480
WIRE 944 624 -32 624
WIRE 1488 640 1136 640
WIRE 752 656 752 144
WIRE 944 656 752 656
WIRE 1040 768 1040 720
WIRE 1040 1136 1040 1088
WIRE 848 1200 848 112
WIRE 944 1200 848 1200
WIRE 1488 1216 1136 1216
WIRE -112 1232 -112 -48
WIRE 944 1232 -112 1232
WIRE 1040 1344 1040 1296
WIRE 1040 1616 1040 1568
WIRE -32 1680 -32 624
WIRE 944 1680 -32 1680
WIRE 1488 1696 1136 1696
WIRE -112 1712 -112 1232
WIRE 944 1712 -112 1712
WIRE 1040 1824 1040 1776
FLAG -288 -480 D0
IOPIN -288 -480 In
FLAG -208 -48 D1
IOPIN -208 -48 In
FLAG 1488 128 Y0
IOPIN 1488 128 Out
FLAG 1488 640 Y1
IOPIN 1488 640 Out
FLAG 1488 1216 Y2
IOPIN 1488 1216 Out
FLAG 1488 1696 Y3
IOPIN 1488 1696 Out
FLAG 304 80 Gnd
IOPIN 304 80 In
FLAG 304 -368 Gnd
IOPIN 304 -368 In
FLAG 1056 256 Gnd
IOPIN 1056 256 In
FLAG 1040 768 Gnd
IOPIN 1040 768 In
FLAG 1040 1344 Gnd
IOPIN 1040 1344 In
FLAG 1040 1824 Gnd
IOPIN 1040 1824 In
FLAG 1040 1568 Vdd
IOPIN 1040 1568 In
FLAG 1040 1088 Vdd
IOPIN 1040 1088 In
FLAG 1040 512 Vdd
IOPIN 1040 512 In
FLAG 1056 0 Vdd
IOPIN 1056 0 In
FLAG 304 -608 Vdd
IOPIN 304 -608 In
FLAG 304 -160 Vdd
IOPIN 304 -160 In
SYMBOL NOT 304 -64 R0
SYMATTR InstName X1
SYMBOL NOT 304 -496 R0
SYMATTR InstName X2
SYMBOL and_symbol 1056 128 R0
SYMATTR InstName X3
SYMBOL and_symbol 1040 640 R0
SYMATTR InstName X4
SYMBOL and_symbol 1040 1216 R0
SYMATTR InstName X5
SYMBOL and_symbol 1040 1696 R0
SYMATTR InstName X6
