Version 4
SHEET 1 880 680
WIRE 416 48 416 0
WIRE 560 112 512 112
WIRE 320 128 272 128
WIRE 560 144 512 144
WIRE 560 176 512 176
WIRE 320 192 272 192
WIRE 560 208 512 208
WIRE 416 320 416 272
FLAG 416 320 0
FLAG 272 128 D0
IOPIN 272 128 In
FLAG 272 192 D1
IOPIN 272 192 In
FLAG 416 0 Vdd
IOPIN 416 0 In
FLAG 560 112 Y0
IOPIN 560 112 Out
FLAG 560 144 Y1
IOPIN 560 144 Out
FLAG 560 176 Y2
IOPIN 560 176 Out
FLAG 560 208 Y3
IOPIN 560 208 Out
FLAG -256 -16 Vdd
IOPIN -256 -16 In
FLAG -256 64 0
FLAG -112 144 D0
IOPIN -112 144 In
FLAG -256 192 D1
IOPIN -256 192 In
FLAG -256 272 0
FLAG -112 224 0
SYMBOL 24_DEC 432 144 R0
SYMATTR InstName X1
SYMBOL voltage -256 -32 R0
WINDOW 123 0 0 Left 0
WINDOW 39 0 0 Left 0
SYMATTR InstName V1
SYMATTR Value 1
SYMBOL voltage -256 176 R0
WINDOW 123 0 0 Left 0
WINDOW 39 0 0 Left 0
SYMATTR InstName V2
SYMATTR Value PULSE(0 1 2 1n 1n 2 4)
SYMBOL voltage -112 128 R0
WINDOW 123 0 0 Left 0
WINDOW 39 0 0 Left 0
SYMATTR InstName V3
SYMATTR Value PULSE(0 1 1 1n 1n 1 2)
TEXT -24 24 Left 2 !.tran 4
