Version 4
SHEET 1 880 680
WIRE 288 80 288 16
WIRE 208 144 112 144
WIRE 224 160 160 160
WIRE 464 160 400 160
WIRE 208 176 112 176
WIRE 288 304 288 256
FLAG 112 144 A
IOPIN 112 144 In
FLAG 160 160 B
IOPIN 160 160 In
FLAG 112 176 C
IOPIN 112 176 In
FLAG 288 16 Vdd
IOPIN 288 16 In
FLAG 288 304 0
FLAG 464 160 Y
IOPIN 464 160 Out
FLAG -304 0 B
IOPIN -304 0 In
FLAG -144 -80 C
IOPIN -144 -80 In
FLAG -416 -64 Vdd
IOPIN -416 -64 In
FLAG -416 16 0
FLAG -304 80 0
FLAG -144 0 0
FLAG -352 256 A
IOPIN -352 256 In
FLAG -352 336 0
SYMBOL 3i_xor 304 160 R0
SYMATTR InstName X1
SYMBOL voltage -304 -16 R0
WINDOW 123 0 0 Left 0
WINDOW 39 0 0 Left 0
SYMATTR InstName V1
SYMATTR Value PULSE(0 1 2 1n 1n 2 4)
SYMBOL voltage -144 -96 R0
WINDOW 123 0 0 Left 0
WINDOW 39 0 0 Left 0
SYMATTR InstName V2
SYMATTR Value PULSE(0 1 1 1n 1n 1 2)
SYMBOL voltage -416 -80 R0
SYMATTR InstName V3
SYMATTR Value 1
SYMBOL voltage -352 240 R0
WINDOW 123 0 0 Left 0
WINDOW 39 0 0 Left 0
SYMATTR InstName V4
SYMATTR Value PULSE(0 1 4 1n 1n 4 8)
TEXT -296 152 Left 2 !.tran 8
