Version 4
SHEET 1 880 680
WIRE 352 80 352 16
WIRE 224 128 144 128
WIRE 224 160 144 160
WIRE 560 160 512 160
WIRE 224 192 144 192
WIRE 352 304 352 240
FLAG -432 -48 Vdd
IOPIN -432 -48 In
FLAG -432 96 B
IOPIN -432 96 In
FLAG -432 256 A
IOPIN -432 256 In
FLAG -432 32 0
FLAG -432 176 0
FLAG -432 336 0
FLAG -208 -80 C
IOPIN -208 -80 In
FLAG -208 0 0
FLAG 144 128 A
IOPIN 144 128 In
FLAG 144 160 B
IOPIN 144 160 In
FLAG 144 192 C
IOPIN 144 192 In
FLAG 352 16 Vdd
IOPIN 352 16 In
FLAG 560 160 Y
IOPIN 560 160 Out
FLAG 352 304 0
SYMBOL 3iAND 352 144 R0
SYMATTR InstName X1
SYMBOL voltage -432 -64 R0
SYMATTR InstName V1
SYMATTR Value 1
SYMBOL voltage -432 80 R0
WINDOW 123 0 0 Left 0
WINDOW 39 0 0 Left 0
SYMATTR InstName V2
SYMATTR Value PULSE(0 1 2 1n 1n 2 4)
SYMBOL voltage -432 240 R0
WINDOW 123 0 0 Left 0
WINDOW 39 0 0 Left 0
SYMATTR InstName V3
SYMATTR Value PULSE(0 1 4 1n 1n 4 8)
SYMBOL voltage -208 -96 R0
WINDOW 123 0 0 Left 0
WINDOW 39 0 0 Left 0
SYMATTR InstName V4
SYMATTR Value PULSE(0 1 1 1n 1n 1 2)
TEXT -224 88 Left 2 !.tran 8
