Version 4
SHEET 1 880 776
WIRE 256 -288 256 -336
WIRE 256 -288 16 -288
WIRE 480 -288 256 -288
WIRE 480 -272 480 -288
WIRE 528 -272 480 -272
WIRE 16 -256 16 -288
WIRE 64 -256 16 -256
WIRE 256 -256 256 -288
WIRE 304 -256 256 -256
WIRE 480 -240 480 -272
WIRE 16 -224 16 -256
WIRE 256 -224 256 -256
WIRE 528 -192 528 -272
WIRE 528 -192 480 -192
WIRE 64 -176 64 -256
WIRE 64 -176 16 -176
WIRE 304 -176 304 -256
WIRE 304 -176 256 -176
WIRE 16 -64 16 -128
WIRE 240 -64 16 -64
WIRE 256 -64 256 -128
WIRE 256 -64 240 -64
WIRE 480 -64 480 -144
WIRE 480 -64 256 -64
WIRE 240 48 240 -64
WIRE 480 48 240 48
WIRE 240 128 240 48
WIRE 288 176 240 176
WIRE 240 256 240 224
WIRE 288 256 288 176
WIRE 288 256 240 256
WIRE 240 304 240 256
WIRE 288 352 240 352
WIRE 240 432 240 400
WIRE 288 432 288 352
WIRE 288 432 240 432
WIRE 240 512 240 432
WIRE 288 560 240 560
WIRE 240 640 240 608
WIRE 288 640 288 560
WIRE 288 640 240 640
WIRE 240 672 240 640
FLAG 192 384 B
IOPIN 192 384 In
FLAG 192 208 A
IOPIN 192 208 In
FLAG -32 -208 A
IOPIN -32 -208 In
FLAG 208 -208 B
IOPIN 208 -208 In
FLAG 480 48 Y
IOPIN 480 48 Out
FLAG 256 -336 Vdd
IOPIN 256 -336 In
FLAG 192 592 C
IOPIN 192 592 In
FLAG 432 -224 C
IOPIN 432 -224 In
FLAG 240 672 Gnd
IOPIN 240 672 In
SYMBOL nmos4 192 128 R0
SYMATTR InstName M1
SYMBOL nmos4 192 304 R0
SYMATTR InstName M2
SYMBOL pmos4 -32 -128 M180
SYMATTR InstName M3
SYMBOL pmos4 208 -128 M180
SYMATTR InstName M4
SYMBOL nmos4 192 512 R0
SYMATTR InstName M5
SYMBOL pmos4 432 -144 M180
SYMATTR InstName M6
