Version 4
SHEET 1 880 680
WIRE 512 112 512 48
WIRE 416 160 320 160
WIRE 416 192 320 192
WIRE 736 192 672 192
WIRE 416 224 320 224
WIRE 512 352 512 272
FLAG -144 -64 Vdd
IOPIN -144 -64 In
FLAG -144 80 B
IOPIN -144 80 In
FLAG -144 240 A
IOPIN -144 240 In
FLAG -144 16 0
FLAG -144 160 0
FLAG -144 320 0
FLAG 80 -96 C
IOPIN 80 -96 In
FLAG 80 -16 0
FLAG 512 352 0
FLAG 320 160 A
IOPIN 320 160 In
FLAG 320 192 B
IOPIN 320 192 In
FLAG 320 224 C
IOPIN 320 224 In
FLAG 512 48 Vdd
IOPIN 512 48 In
FLAG 736 192 Y
IOPIN 736 192 Out
SYMBOL voltage -144 -80 R0
SYMATTR InstName V1
SYMATTR Value 1
SYMBOL voltage -144 64 R0
WINDOW 123 0 0 Left 0
WINDOW 39 0 0 Left 0
SYMATTR InstName V2
SYMATTR Value PULSE(0 1 2 1n 1n 2 4)
SYMBOL voltage -144 224 R0
WINDOW 123 0 0 Left 0
WINDOW 39 0 0 Left 0
SYMATTR InstName V3
SYMATTR Value PULSE(0 1 4 1n 1n 4 8)
SYMBOL voltage 80 -112 R0
WINDOW 123 0 0 Left 0
WINDOW 39 0 0 Left 0
SYMATTR InstName V4
SYMATTR Value PULSE(0 1 1 1n 1n 1 2)
SYMBOL 3inand 512 192 R0
SYMATTR InstName X1
TEXT 64 72 Left 2 !.tran 8
