Version 4
SHEET 1 880 680
WIRE 416 48 416 0
WIRE 384 64 336 64
WIRE 384 80 384 64
WIRE 304 144 256 144
WIRE 304 176 256 176
WIRE 528 192 480 192
WIRE 304 208 256 208
WIRE 304 240 256 240
WIRE 384 352 384 304
WIRE 416 352 416 304
FLAG 336 64 Vdd
IOPIN 336 64 In
FLAG 256 144 A
IOPIN 256 144 In
FLAG 256 176 B
IOPIN 256 176 In
FLAG 256 208 C
IOPIN 256 208 In
FLAG 256 240 D
IOPIN 256 240 In
FLAG 416 352 S0
IOPIN 416 352 In
FLAG 384 352 S1
IOPIN 384 352 In
FLAG 528 192 Y
IOPIN 528 192 Out
FLAG 416 0 0
FLAG -32 96 S0
IOPIN -32 96 In
FLAG -160 96 S1
IOPIN -160 96 In
FLAG -336 32 A
IOPIN -336 32 In
FLAG -336 176 B
IOPIN -336 176 In
FLAG -336 320 C
IOPIN -336 320 In
FLAG -336 480 D
IOPIN -336 480 In
FLAG -464 32 Vdd
IOPIN -464 32 In
FLAG -464 112 0
FLAG -336 112 0
FLAG -336 256 0
FLAG -336 400 0
FLAG -160 176 0
FLAG -32 176 0
FLAG -336 560 0
SYMBOL 41_MUX 416 176 R0
SYMATTR InstName X1
SYMBOL voltage -464 16 R0
WINDOW 123 0 0 Left 0
WINDOW 39 0 0 Left 0
SYMATTR InstName V1
SYMATTR Value 1
SYMBOL voltage -336 16 R0
WINDOW 123 0 0 Left 0
WINDOW 39 0 0 Left 0
SYMATTR InstName V2
SYMATTR Value 1
SYMBOL voltage -336 160 R0
WINDOW 123 0 0 Left 0
WINDOW 39 0 0 Left 0
SYMATTR InstName V3
SYMATTR Value 0
SYMBOL voltage -336 304 R0
WINDOW 123 0 0 Left 0
WINDOW 39 0 0 Left 0
SYMATTR InstName V4
SYMATTR Value 1
SYMBOL voltage -336 464 R0
WINDOW 123 0 0 Left 0
WINDOW 39 0 0 Left 0
SYMATTR InstName V5
SYMATTR Value 0
SYMBOL voltage -32 80 R0
WINDOW 123 0 0 Left 0
WINDOW 39 0 0 Left 0
SYMATTR InstName V6
SYMATTR Value 0
SYMBOL voltage -160 80 R0
WINDOW 123 0 0 Left 0
WINDOW 39 0 0 Left 0
SYMATTR InstName V7
SYMATTR Value 0
TEXT -136 288 Left 2 !.tran 2
