Version 4
SHEET 1 1648 1172
WIRE 384 -144 -48 -144
WIRE 800 -144 384 -144
WIRE 1200 -144 800 -144
WIRE 1408 -144 1200 -144
WIRE 1552 -144 1408 -144
WIRE -80 -16 -80 -64
WIRE -48 -16 -48 -144
WIRE 352 -16 352 -64
WIRE 384 -16 384 -144
WIRE 768 -16 768 -64
WIRE 800 -16 800 -144
WIRE 1168 -16 1168 -64
WIRE 1200 -16 1200 -144
WIRE 1408 320 1408 -144
WIRE 1408 320 1216 320
WIRE 752 448 752 384
WIRE 784 448 784 192
WIRE 1008 448 816 448
WIRE 1152 448 1152 384
WIRE 1184 448 1184 192
WIRE 1216 448 1216 320
WIRE -96 464 -96 384
WIRE -64 464 -64 192
WIRE 160 464 -32 464
WIRE 336 480 336 384
WIRE 368 480 368 192
WIRE 608 480 400 480
WIRE -80 768 -80 688
WIRE 352 768 352 704
WIRE 768 768 768 672
WIRE 1168 768 1168 672
WIRE -48 912 -48 688
WIRE 160 1040 160 464
WIRE 384 1040 384 704
WIRE 384 1040 160 1040
WIRE 608 1040 608 480
WIRE 800 1040 800 672
WIRE 800 1040 608 1040
WIRE 1008 1040 1008 448
WIRE 1200 1040 1200 672
WIRE 1200 1040 1008 1040
FLAG 1552 -144 Cin
IOPIN 1552 -144 In
FLAG 1152 384 A0
IOPIN 1152 384 In
FLAG 1168 -64 B0
IOPIN 1168 -64 In
FLAG 752 384 A1
IOPIN 752 384 In
FLAG 336 384 A2
IOPIN 336 384 In
FLAG -96 384 A3
IOPIN -96 384 In
FLAG 768 -64 B1
IOPIN 768 -64 In
FLAG 352 -64 B2
IOPIN 352 -64 In
FLAG -80 -64 B3
IOPIN -80 -64 In
FLAG 1168 768 S0
IOPIN 1168 768 Out
FLAG 768 768 S1
IOPIN 768 768 Out
FLAG 352 768 S2
IOPIN 352 768 Out
FLAG -80 768 S3
IOPIN -80 768 Out
FLAG -48 912 Cout
IOPIN -48 912 Out
FLAG -144 576 Vdd
IOPIN -144 576 In
FLAG 288 592 Vdd
IOPIN 288 592 In
FLAG 704 560 Vdd
IOPIN 704 560 In
FLAG 1104 560 Vdd
IOPIN 1104 560 In
FLAG 0 96 Vdd
IOPIN 0 96 In
FLAG 432 96 Vdd
IOPIN 432 96 In
FLAG 848 96 Vdd
IOPIN 848 96 In
FLAG 1248 96 Vdd
IOPIN 1248 96 In
FLAG -128 96 Gnd
IOPIN -128 96 In
FLAG 304 96 Gnd
IOPIN 304 96 In
FLAG 720 96 Gnd
IOPIN 720 96 In
FLAG 1120 96 Gnd
IOPIN 1120 96 In
FLAG 32 576 Gnd
IOPIN 32 576 In
FLAG 464 592 Gnd
IOPIN 464 592 In
FLAG 880 560 Gnd
IOPIN 880 560 In
FLAG 1280 560 Gnd
IOPIN 1280 560 In
SYMBOL XOR1 -48 64 R90
SYMATTR InstName X1
SYMBOL XOR1 384 64 R90
SYMATTR InstName X2
SYMBOL XOR1 800 64 R90
SYMATTR InstName X3
SYMBOL XOR1 1200 64 R90
SYMATTR InstName X4
SYMBOL Full_adder 1184 576 M90
SYMATTR InstName X5
SYMBOL Full_adder 784 576 M90
SYMATTR InstName X6
SYMBOL Full_adder 368 608 M90
SYMATTR InstName X7
SYMBOL Full_adder -64 592 M90
SYMATTR InstName X8
