Version 4
SHEET 1 888 680
WIRE 544 128 544 48
WIRE 432 192 304 192
WIRE 448 192 432 192
WIRE 416 208 256 208
WIRE 784 208 688 208
WIRE 448 224 160 224
WIRE 416 240 208 240
WIRE 544 384 544 304
FLAG -320 -16 Vdd
IOPIN -320 -16 In
FLAG -320 128 B
IOPIN -320 128 In
FLAG -320 288 A
IOPIN -320 288 In
FLAG -320 64 0
FLAG -320 208 0
FLAG -320 368 0
FLAG -96 -48 C
IOPIN -96 -48 In
FLAG -96 32 0
FLAG 48 368 D
IOPIN 48 368 In
FLAG 48 448 0
FLAG 544 384 0
FLAG 304 192 A
IOPIN 304 192 In
FLAG 256 208 B
IOPIN 256 208 In
FLAG 208 240 D
IOPIN 208 240 In
FLAG 160 224 C
IOPIN 160 224 In
FLAG 544 48 Vdd
IOPIN 544 48 In
FLAG 784 208 Y
IOPIN 784 208 Out
SYMBOL 4iAND 560 208 R0
SYMATTR InstName X1
SYMBOL voltage -320 -32 R0
SYMATTR InstName V1
SYMATTR Value 1
SYMBOL voltage -320 112 R0
WINDOW 123 0 0 Left 0
WINDOW 39 0 0 Left 0
SYMATTR InstName V2
SYMATTR Value PULSE(0 1 4 1n 1n 4 8)
SYMBOL voltage -320 272 R0
WINDOW 123 0 0 Left 0
WINDOW 39 0 0 Left 0
SYMATTR InstName V3
SYMATTR Value PULSE(0 1 8 1n 1n 8 16)
SYMBOL voltage -96 -64 R0
WINDOW 123 0 0 Left 0
WINDOW 39 0 0 Left 0
SYMATTR InstName V4
SYMATTR Value PULSE(0 1 2 1n 1n 2 4)
SYMBOL voltage 48 352 R0
WINDOW 123 0 0 Left 0
WINDOW 39 0 0 Left 0
SYMATTR InstName V5
SYMATTR Value PULSE(0 1 1 1n 1n 1 2)
TEXT -112 120 Left 2 !.tran 16
