Version 4
SHEET 1 880 680
WIRE 288 64 288 32
WIRE 192 144 112 144
WIRE 192 160 64 160
WIRE 496 160 432 160
WIRE 192 176 112 176
WIRE 192 192 64 192
WIRE 288 320 288 272
FLAG 112 144 A
IOPIN 112 144 In
FLAG 64 160 B
IOPIN 64 160 In
FLAG 112 176 C
IOPIN 112 176 In
FLAG 64 192 D
IOPIN 64 192 In
FLAG 288 320 0
FLAG 288 32 Vdd
IOPIN 288 32 In
FLAG 496 160 Y
IOPIN 496 160 Out
FLAG -464 -64 Vdd
IOPIN -464 -64 In
FLAG -464 80 C
IOPIN -464 80 In
FLAG -464 240 B
IOPIN -464 240 In
FLAG -464 16 0
FLAG -464 160 0
FLAG -464 320 0
FLAG -240 -96 D
IOPIN -240 -96 In
FLAG -240 -16 0
FLAG -464 400 A
IOPIN -464 400 In
FLAG -464 480 0
SYMBOL 4inand 272 144 R0
SYMATTR InstName X1
SYMBOL voltage -464 -80 R0
SYMATTR InstName V1
SYMATTR Value 1
SYMBOL voltage -464 64 R0
WINDOW 123 0 0 Left 0
WINDOW 39 0 0 Left 0
SYMATTR InstName V2
SYMATTR Value PULSE(0 1 2 1n 1n 2 4)
SYMBOL voltage -464 224 R0
WINDOW 123 0 0 Left 0
WINDOW 39 0 0 Left 0
SYMATTR InstName V3
SYMATTR Value PULSE(0 1 4 1n 1n 4 8)
SYMBOL voltage -240 -112 R0
WINDOW 123 0 0 Left 0
WINDOW 39 0 0 Left 0
SYMATTR InstName V4
SYMATTR Value PULSE(0 1 1 1n 1n 1 2)
SYMBOL voltage -464 384 R0
WINDOW 123 0 0 Left 0
WINDOW 39 0 0 Left 0
SYMATTR InstName V5
SYMATTR Value PULSE(0 1 8 1n 1n 8 16)
TEXT -256 72 Left 2 !.tran 16
