Version 4
SHEET 1 1260 680
WIRE 944 144 944 64
WIRE 848 176 416 176
WIRE 848 192 496 192
WIRE 848 208 576 208
WIRE 1184 208 1072 208
WIRE 848 224 656 224
WIRE 944 352 944 272
FLAG -336 -64 Vdd
IOPIN -336 -64 In
FLAG -336 80 B
IOPIN -336 80 In
FLAG -336 240 A
IOPIN -336 240 In
FLAG -336 16 0
FLAG -336 160 0
FLAG -336 320 0
FLAG -112 -96 C
IOPIN -112 -96 In
FLAG -112 -16 0
FLAG 32 224 D
IOPIN 32 224 In
FLAG 32 304 0
FLAG 416 176 A
IOPIN 416 176 In
FLAG 496 192 B
IOPIN 496 192 In
FLAG 576 208 C
IOPIN 576 208 In
FLAG 656 224 D
IOPIN 656 224 In
FLAG 944 64 Vdd
IOPIN 944 64 In
FLAG 1184 208 Y
IOPIN 1184 208 Out
FLAG 944 352 0
SYMBOL 4i_OR 976 224 R0
SYMATTR InstName X1
SYMBOL voltage -336 -80 R0
SYMATTR InstName V1
SYMATTR Value 1
SYMBOL voltage -336 64 R0
WINDOW 123 0 0 Left 0
WINDOW 39 0 0 Left 0
SYMATTR InstName V2
SYMATTR Value PULSE(0 1 4 1n 1n 4 8)
SYMBOL voltage -336 224 R0
WINDOW 123 0 0 Left 0
WINDOW 39 0 0 Left 0
SYMATTR InstName V3
SYMATTR Value PULSE(0 1 8 1n 1n 8 16)
SYMBOL voltage -112 -112 R0
WINDOW 123 0 0 Left 0
WINDOW 39 0 0 Left 0
SYMATTR InstName V4
SYMATTR Value PULSE(0 1 2 1n 1n 2 4)
SYMBOL voltage 32 208 R0
WINDOW 123 0 0 Left 0
WINDOW 39 0 0 Left 0
SYMATTR InstName V5
SYMATTR Value PULSE(0 1 1 1n 1n 1 2)
TEXT -128 72 Left 2 !.tran 16
