Version 4
SHEET 1 1376 836
WIRE 112 -352 -320 -352
WIRE 528 -352 112 -352
WIRE 928 -352 528 -352
WIRE 1136 -352 928 -352
WIRE 1280 -352 1136 -352
WIRE -352 -224 -352 -272
WIRE -320 -224 -320 -352
WIRE 80 -224 80 -272
WIRE 112 -224 112 -352
WIRE 496 -224 496 -272
WIRE 528 -224 528 -352
WIRE 896 -224 896 -272
WIRE 928 -224 928 -352
WIRE 1136 112 1136 -352
WIRE 1136 112 944 112
WIRE 480 240 480 176
WIRE 512 240 512 -16
WIRE 736 240 544 240
WIRE 880 240 880 176
WIRE 912 240 912 -16
WIRE 944 240 944 112
WIRE -368 256 -368 176
WIRE -336 256 -336 -16
WIRE -112 256 -304 256
WIRE 64 272 64 176
WIRE 96 272 96 -16
WIRE 336 272 128 272
WIRE -352 560 -352 480
WIRE 80 560 80 496
WIRE 496 560 496 464
WIRE 896 560 896 464
WIRE -320 704 -320 480
WIRE -112 832 -112 256
WIRE 112 832 112 496
WIRE 112 832 -112 832
WIRE 336 832 336 272
WIRE 528 832 528 464
WIRE 528 832 336 832
WIRE 736 832 736 240
WIRE 928 832 928 464
WIRE 928 832 736 832
FLAG 1280 -352 Cin
IOPIN 1280 -352 In
FLAG 880 176 A0
IOPIN 880 176 In
FLAG 896 -272 B0
IOPIN 896 -272 In
FLAG 480 176 A1
IOPIN 480 176 In
FLAG 64 176 A2
IOPIN 64 176 In
FLAG -368 176 A3
IOPIN -368 176 In
FLAG 496 -272 B1
IOPIN 496 -272 In
FLAG 80 -272 B2
IOPIN 80 -272 In
FLAG -352 -272 B3
IOPIN -352 -272 In
FLAG 896 560 S0
IOPIN 896 560 Out
FLAG 496 560 S1
IOPIN 496 560 Out
FLAG 80 560 S2
IOPIN 80 560 Out
FLAG -352 560 S3
IOPIN -352 560 Out
FLAG -320 704 Cout
IOPIN -320 704 Out
FLAG -416 368 Vdd
IOPIN -416 368 In
FLAG 16 384 Vdd
IOPIN 16 384 In
FLAG 432 352 Vdd
IOPIN 432 352 In
FLAG 832 352 Vdd
IOPIN 832 352 In
FLAG -272 -112 Vdd
IOPIN -272 -112 In
FLAG 160 -112 Vdd
IOPIN 160 -112 In
FLAG 576 -112 Vdd
IOPIN 576 -112 In
FLAG 976 -112 Vdd
IOPIN 976 -112 In
FLAG -400 -112 Gnd
IOPIN -400 -112 In
FLAG 32 -112 Gnd
IOPIN 32 -112 In
FLAG 448 -112 Gnd
IOPIN 448 -112 In
FLAG 848 -112 Gnd
IOPIN 848 -112 In
FLAG -240 368 Gnd
IOPIN -240 368 In
FLAG 192 384 Gnd
IOPIN 192 384 In
FLAG 608 352 Gnd
IOPIN 608 352 In
FLAG 1008 352 Gnd
IOPIN 1008 352 In
SYMBOL XOR1 -320 -144 R90
SYMATTR InstName X1
SYMBOL XOR1 112 -144 R90
SYMATTR InstName X2
SYMBOL XOR1 528 -144 R90
SYMATTR InstName X3
SYMBOL XOR1 928 -144 R90
SYMATTR InstName X4
SYMBOL Full_adder 912 368 M90
SYMATTR InstName X5
SYMBOL Full_adder 512 368 M90
SYMATTR InstName X6
SYMBOL Full_adder 96 400 M90
SYMATTR InstName X7
SYMBOL Full_adder -336 384 M90
SYMATTR InstName X8
