Version 4
SHEET 1 2752 680
WIRE 1984 -304 1984 -368
WIRE 1792 -240 1712 -240
WIRE 2192 -240 2112 -240
WIRE 1824 -224 1632 -224
WIRE 1792 -208 1552 -208
WIRE 2192 -208 2112 -208
WIRE 1824 -192 1472 -192
WIRE 2192 -176 2112 -176
WIRE 1824 -160 1472 -160
WIRE 1792 -144 1552 -144
WIRE 2192 -144 2112 -144
WIRE 1824 -128 1632 -128
WIRE 1792 -112 1712 -112
WIRE 2336 -96 2160 -96
WIRE 1872 -80 1824 -80
WIRE 1984 64 1984 -16
FLAG 800 -672 Vdd
IOPIN 800 -672 In
FLAG 800 -592 0
FLAG 816 -400 A0
IOPIN 816 -400 In
FLAG 784 -80 A1
IOPIN 784 -80 In
FLAG 784 256 A2
IOPIN 784 256 In
FLAG 752 496 A3
IOPIN 752 496 In
FLAG 1136 -384 B0
IOPIN 1136 -384 In
FLAG 1120 -80 B1
IOPIN 1120 -80 In
FLAG 1120 144 B2
IOPIN 1120 144 In
FLAG 1088 512 B3
IOPIN 1088 512 In
FLAG 816 -320 0
FLAG 1136 -304 0
FLAG 784 0 0
FLAG 1120 0 0
FLAG 784 336 0
FLAG 1120 224 0
FLAG 1088 592 0
FLAG 752 576 0
FLAG 1152 -640 Cin
IOPIN 1152 -640 In
FLAG 1152 -560 0
FLAG 1712 -240 A0
IOPIN 1712 -240 In
FLAG 1632 -224 A1
IOPIN 1632 -224 In
FLAG 1552 -208 A2
IOPIN 1552 -208 In
FLAG 1472 -192 A3
IOPIN 1472 -192 In
FLAG 1712 -112 B3
IOPIN 1712 -112 In
FLAG 1632 -128 B2
IOPIN 1632 -128 In
FLAG 1552 -144 B1
IOPIN 1552 -144 In
FLAG 1472 -160 B0
IOPIN 1472 -160 In
FLAG 1984 -368 Vdd
IOPIN 1984 -368 In
FLAG 1984 64 0
FLAG 2192 -240 S0
IOPIN 2192 -240 Out
FLAG 2192 -208 S1
IOPIN 2192 -208 Out
FLAG 2192 -176 S2
IOPIN 2192 -176 Out
FLAG 2192 -144 S3
IOPIN 2192 -144 Out
FLAG 2336 -96 Cout
IOPIN 2336 -96 Out
FLAG 1824 -80 Cin
IOPIN 1824 -80 In
SYMBOL voltage 800 -688 R0
WINDOW 123 0 0 Left 0
WINDOW 39 0 0 Left 0
SYMATTR InstName V1
SYMATTR Value 1
SYMBOL voltage 816 -416 R0
WINDOW 123 0 0 Left 0
WINDOW 39 0 0 Left 0
SYMATTR InstName V2
SYMATTR Value 1
SYMBOL voltage 784 -96 R0
WINDOW 123 0 0 Left 0
WINDOW 39 0 0 Left 0
SYMATTR InstName V3
SYMATTR Value 1
SYMBOL voltage 784 240 R0
WINDOW 123 0 0 Left 0
WINDOW 39 0 0 Left 0
SYMATTR InstName V4
SYMATTR Value 1
SYMBOL voltage 752 480 R0
WINDOW 123 0 0 Left 0
WINDOW 39 0 0 Left 0
SYMATTR InstName V5
SYMATTR Value 1
SYMBOL voltage 1136 -400 R0
WINDOW 123 0 0 Left 0
WINDOW 39 0 0 Left 0
SYMATTR InstName V6
SYMATTR Value 1
SYMBOL voltage 1120 -96 R0
WINDOW 123 0 0 Left 0
WINDOW 39 0 0 Left 0
SYMATTR InstName V7
SYMATTR Value 0
SYMBOL voltage 1120 128 R0
WINDOW 123 0 0 Left 0
WINDOW 39 0 0 Left 0
SYMATTR InstName V8
SYMATTR Value 0
SYMBOL voltage 1088 496 R0
WINDOW 123 0 0 Left 0
WINDOW 39 0 0 Left 0
SYMATTR InstName V9
SYMATTR Value 1
SYMBOL voltage 1152 -656 R0
WINDOW 123 0 0 Left 0
WINDOW 39 0 0 Left 0
SYMATTR InstName V10
SYMATTR Value 1
SYMBOL 4i_sub 1984 -208 R0
SYMATTR InstName X1
TEXT 944 -208 Left 2 !.tran 2
