Version 4
SHEET 1 880 680
WIRE 304 80 304 16
WIRE 176 144 0 144
WIRE 192 160 48 160
WIRE 160 176 0 176
WIRE 496 176 432 176
WIRE 176 192 64 192
WIRE 304 320 304 272
FLAG 496 176 Y
IOPIN 496 176 Out
FLAG 304 320 0
FLAG 304 16 Vdd
IOPIN 304 16 In
FLAG 0 144 A
IOPIN 0 144 In
FLAG 48 160 B
IOPIN 48 160 In
FLAG 0 176 C
IOPIN 0 176 In
FLAG 64 192 D
IOPIN 64 192 In
FLAG -464 -32 C
IOPIN -464 -32 In
FLAG -304 -112 D
IOPIN -304 -112 In
FLAG -576 -96 Vdd
IOPIN -576 -96 In
FLAG -576 -16 0
FLAG -464 48 0
FLAG -304 -32 0
FLAG -512 224 B
IOPIN -512 224 In
FLAG -512 304 0
FLAG -512 400 A
IOPIN -512 400 In
FLAG -512 480 0
SYMBOL 4i_xor 304 176 R0
SYMATTR InstName X1
SYMBOL voltage -464 -48 R0
WINDOW 123 0 0 Left 0
WINDOW 39 0 0 Left 0
SYMATTR InstName V1
SYMATTR Value PULSE(0 1 2 1n 1n 2 4)
SYMBOL voltage -304 -128 R0
WINDOW 123 0 0 Left 0
WINDOW 39 0 0 Left 0
SYMATTR InstName V2
SYMATTR Value PULSE(0 1 1 1n 1n 1 2)
SYMBOL voltage -576 -112 R0
SYMATTR InstName V3
SYMATTR Value 1
SYMBOL voltage -512 208 R0
WINDOW 123 0 0 Left 0
WINDOW 39 0 0 Left 0
SYMATTR InstName V4
SYMATTR Value PULSE(0 1 4 1n 1n 4 8)
SYMBOL voltage -512 384 R0
WINDOW 123 0 0 Left 0
WINDOW 39 0 0 Left 0
SYMATTR InstName V5
SYMATTR Value PULSE(0 1 8 1n 1n 8 16)
TEXT -456 120 Left 2 !.tran 16
