Version 4
SHEET 1 880 708
WIRE 368 32 368 -32
WIRE 192 112 128 112
WIRE 160 128 96 128
WIRE 192 144 128 144
WIRE 160 160 96 160
WIRE 160 192 96 192
WIRE 624 192 560 192
WIRE 192 208 128 208
WIRE 160 224 96 224
WIRE 192 240 128 240
WIRE 368 416 368 352
FLAG -384 -96 Vdd
IOPIN -384 -96 In
FLAG 368 -32 Vdd
IOPIN 368 -32 In
FLAG -720 -64 A
IOPIN -720 -64 In
FLAG 128 112 A
IOPIN 128 112 In
FLAG -448 80 B
IOPIN -448 80 In
FLAG 96 128 B
IOPIN 96 128 In
FLAG -688 144 C
IOPIN -688 144 In
FLAG 128 144 C
IOPIN 128 144 In
FLAG 96 160 D
IOPIN 96 160 In
FLAG -448 288 D
IOPIN -448 288 In
FLAG 96 192 E
IOPIN 96 192 In
FLAG -624 432 E
IOPIN -624 432 In
FLAG 128 208 F
IOPIN 128 208 In
FLAG -384 576 F
IOPIN -384 576 In
FLAG 96 224 G
IOPIN 96 224 In
FLAG -256 416 G
IOPIN -256 416 In
FLAG 128 240 H
IOPIN 128 240 In
FLAG 16 560 H
IOPIN 16 560 In
FLAG -384 -16 0
FLAG -720 16 0
FLAG -448 160 0
FLAG -688 224 0
FLAG -448 368 0
FLAG -624 512 0
FLAG -384 656 0
FLAG -256 496 0
FLAG 16 640 0
FLAG 368 416 0
FLAG 624 192 Y
IOPIN 624 192 Out
SYMBOL 8i_OR 416 160 R0
SYMATTR InstName X1
SYMBOL voltage -384 -112 R0
WINDOW 123 0 0 Left 0
WINDOW 39 0 0 Left 0
SYMATTR InstName V1
SYMATTR Value 1
SYMBOL voltage -720 -80 R0
WINDOW 123 0 0 Left 0
WINDOW 39 0 0 Left 0
SYMATTR InstName V2
SYMATTR Value PULSE(0 1 128 1n 1n 128 256)
SYMBOL voltage -448 64 R0
WINDOW 123 0 0 Left 0
WINDOW 39 0 0 Left 0
SYMATTR InstName V3
SYMATTR Value PULSE(0 1 64 1n 1n 64 128)
SYMBOL voltage -688 128 R0
WINDOW 123 0 0 Left 0
WINDOW 39 0 0 Left 0
SYMATTR InstName V4
SYMATTR Value PULSE(0 1 32 1n 1n 32 64)
SYMBOL voltage -448 272 R0
WINDOW 123 0 0 Left 0
WINDOW 39 0 0 Left 0
SYMATTR InstName V5
SYMATTR Value PULSE(0 1 16 1n 1n 16 32)
SYMBOL voltage -624 416 R0
WINDOW 123 0 0 Left 0
WINDOW 39 0 0 Left 0
SYMATTR InstName V6
SYMATTR Value PULSE(0 1 8 1n 1n 8 16)
SYMBOL voltage -384 560 R0
WINDOW 123 0 0 Left 0
WINDOW 39 0 0 Left 0
SYMATTR InstName V7
SYMATTR Value PULSE(0 1 4 1n 1n 4 8)
SYMBOL voltage -256 400 R0
WINDOW 123 0 0 Left 0
WINDOW 39 0 0 Left 0
SYMATTR InstName V8
SYMATTR Value PULSE(0 1 2 1n 1n 2 4)
SYMBOL voltage 16 544 R0
WINDOW 123 0 0 Left 0
WINDOW 39 0 0 Left 0
SYMATTR InstName V9
SYMATTR Value PULSE(0 1 1 1n 1n 1 2)
TEXT -272 -32 Left 2 !.tran 256
