Version 4
SHEET 1 1192 680
WIRE 320 -16 320 -64
WIRE 560 64 480 64
WIRE 656 96 480 96
WIRE 176 112 80 112
WIRE 560 128 480 128
WIRE 176 160 64 160
WIRE 656 160 480 160
WIRE 560 192 480 192
WIRE 176 208 80 208
WIRE 656 224 480 224
WIRE 560 256 480 256
WIRE 656 288 480 288
WIRE 320 416 320 368
FLAG 80 112 D2
IOPIN 80 112 In
FLAG 64 160 D1
IOPIN 64 160 In
FLAG 560 64 Y0
IOPIN 560 64 Out
FLAG 656 96 Y1
IOPIN 656 96 Out
FLAG 560 128 Y2
IOPIN 560 128 Out
FLAG 656 160 Y3
IOPIN 656 160 Out
FLAG 560 192 Y4
IOPIN 560 192 Out
FLAG 656 224 Y5
IOPIN 656 224 Out
FLAG 560 256 Y6
IOPIN 560 256 Out
FLAG 656 288 Y7
IOPIN 656 288 Out
FLAG 320 -64 Vdd
IOPIN 320 -64 In
FLAG 320 416 0
FLAG -608 -32 0
FLAG -272 144 0
FLAG -416 144 0
FLAG -560 144 0
FLAG -608 -112 Vdd
IOPIN -608 -112 In
FLAG -560 64 D2
IOPIN -560 64 In
FLAG -416 64 D1
IOPIN -416 64 In
FLAG 80 208 D0
IOPIN 80 208 In
FLAG -272 64 D0
IOPIN -272 64 In
SYMBOL voltage -608 -128 R0
WINDOW 123 0 0 Left 0
WINDOW 39 0 0 Left 0
SYMATTR InstName V1
SYMATTR Value 1
SYMBOL voltage -272 48 R0
WINDOW 123 0 0 Left 0
WINDOW 39 0 0 Left 0
SYMATTR InstName V2
SYMATTR Value 0
SYMBOL voltage -416 48 R0
WINDOW 123 0 0 Left 0
WINDOW 39 0 0 Left 0
SYMATTR InstName V3
SYMATTR Value 0
SYMBOL voltage -560 48 R0
WINDOW 123 0 0 Left 0
WINDOW 39 0 0 Left 0
SYMATTR InstName V4
SYMATTR Value 1
SYMBOL ALU_DEC 336 96 R0
SYMATTR InstName X1
TEXT -424 -80 Left 2 !.tran 2
