Version 4
SHEET 1 880 692
WIRE 368 0 368 -64
WIRE 432 0 432 -64
WIRE 272 64 208 64
WIRE 272 96 208 96
WIRE 272 128 208 128
WIRE 272 160 208 160
WIRE 608 160 544 160
WIRE 272 192 208 192
WIRE 272 224 208 224
WIRE 272 256 208 256
WIRE 272 288 208 288
WIRE 368 416 368 352
WIRE 400 416 400 352
WIRE 432 416 432 352
FLAG 208 64 A
IOPIN 208 64 In
FLAG 208 96 B
IOPIN 208 96 In
FLAG 208 128 C
IOPIN 208 128 In
FLAG 208 160 D
IOPIN 208 160 In
FLAG 208 192 E
IOPIN 208 192 In
FLAG 208 224 F
IOPIN 208 224 In
FLAG 208 256 G
IOPIN 208 256 In
FLAG 208 288 H
IOPIN 208 288 In
FLAG 432 416 S0
IOPIN 432 416 In
FLAG 400 416 S1
IOPIN 400 416 In
FLAG 368 416 S2
IOPIN 368 416 In
FLAG 368 -64 Vdd
IOPIN 368 -64 In
FLAG 432 -64 0
FLAG 608 160 Y
IOPIN 608 160 Out
FLAG -944 80 Vdd
IOPIN -944 80 In
FLAG -688 -48 B
IOPIN -688 -48 In
FLAG -688 -240 A
IOPIN -688 -240 In
FLAG -944 160 0
FLAG -688 32 0
FLAG -688 -160 0
FLAG -688 144 C
IOPIN -688 144 In
FLAG -688 224 0
FLAG -688 336 D
IOPIN -688 336 In
FLAG -688 416 0
FLAG -288 -32 G
IOPIN -288 -32 In
FLAG -288 -224 H
IOPIN -288 -224 In
FLAG -288 48 0
FLAG -288 -144 0
FLAG -288 160 F
IOPIN -288 160 In
FLAG -288 240 0
FLAG -288 352 E
IOPIN -288 352 In
FLAG -288 432 0
FLAG -256 592 S0
IOPIN -256 592 In
FLAG -416 592 S1
IOPIN -416 592 In
FLAG -592 592 S2
IOPIN -592 592 In
FLAG -592 672 0
FLAG -416 672 0
FLAG -256 672 0
SYMBOL ALU_MUX 400 128 R0
SYMATTR InstName X1
SYMBOL voltage -944 64 R0
SYMATTR InstName V1
SYMATTR Value 1
SYMBOL voltage -688 -256 R0
WINDOW 123 0 0 Left 0
WINDOW 39 0 0 Left 0
SYMATTR InstName V2
SYMATTR Value 0
SYMBOL voltage -688 -64 R0
WINDOW 123 0 0 Left 0
WINDOW 39 0 0 Left 0
SYMATTR InstName V3
SYMATTR Value 1
SYMBOL voltage -688 128 R0
WINDOW 123 0 0 Left 0
WINDOW 39 0 0 Left 0
SYMATTR InstName V4
SYMATTR Value 0
SYMBOL voltage -688 320 R0
WINDOW 123 0 0 Left 0
WINDOW 39 0 0 Left 0
SYMATTR InstName V5
SYMATTR Value 1
SYMBOL voltage -288 -240 R0
WINDOW 123 0 0 Left 0
WINDOW 39 0 0 Left 0
SYMATTR InstName V6
SYMATTR Value 1
SYMBOL voltage -288 -48 R0
WINDOW 123 0 0 Left 0
WINDOW 39 0 0 Left 0
SYMATTR InstName V7
SYMATTR Value 0
SYMBOL voltage -288 144 R0
WINDOW 123 0 0 Left 0
WINDOW 39 0 0 Left 0
SYMATTR InstName V8
SYMATTR Value 1
SYMBOL voltage -288 336 R0
WINDOW 123 0 0 Left 0
WINDOW 39 0 0 Left 0
SYMATTR InstName V9
SYMATTR Value 1
SYMBOL voltage -256 576 R0
WINDOW 123 0 0 Left 0
WINDOW 39 0 0 Left 0
SYMATTR InstName V10
SYMATTR Value 0
SYMBOL voltage -416 576 R0
WINDOW 123 0 0 Left 0
WINDOW 39 0 0 Left 0
SYMATTR InstName V11
SYMATTR Value 1
SYMBOL voltage -592 576 R0
WINDOW 123 0 0 Left 0
WINDOW 39 0 0 Left 0
SYMATTR InstName V12
SYMATTR Value 0
TEXT -528 -8 Left 2 !.tran 2
