Version 4
SHEET 1 1656 680
WIRE 272 -144 272 -192
WIRE 128 -64 0 -64
WIRE 496 -64 400 -64
WIRE 96 -48 -64 -48
WIRE 128 -32 0 -32
WIRE 496 -32 400 -32
WIRE 96 -16 -64 -16
WIRE 496 0 400 0
WIRE 128 16 0 16
WIRE 96 32 -64 32
WIRE 496 32 400 32
WIRE 128 48 0 48
WIRE 96 64 -64 64
WIRE 272 192 272 144
FLAG 1120 -208 Vdd
IOPIN 1120 -208 In
FLAG 1328 -416 A0
IOPIN 1328 -416 In
FLAG 1536 -400 B0
IOPIN 1536 -400 In
FLAG 1312 -192 A1
IOPIN 1312 -192 In
FLAG 1552 -192 B1
IOPIN 1552 -192 In
FLAG 1312 0 A2
IOPIN 1312 0 In
FLAG 1536 32 B2
IOPIN 1536 32 In
FLAG 1296 256 A3
IOPIN 1296 256 In
FLAG 1536 256 B3
IOPIN 1536 256 In
FLAG 1120 -128 0
FLAG 1328 -336 0
FLAG 1536 -320 0
FLAG 1312 -112 0
FLAG 1552 -112 0
FLAG 1312 80 0
FLAG 1536 112 0
FLAG 1296 336 0
FLAG 1536 336 0
FLAG 272 192 0
FLAG 272 -192 Vdd
IOPIN 272 -192 In
FLAG 0 -64 A0
IOPIN 0 -64 In
FLAG -64 -48 A1
IOPIN -64 -48 In
FLAG 0 -32 A2
IOPIN 0 -32 In
FLAG -64 -16 A3
IOPIN -64 -16 In
FLAG 0 16 B0
IOPIN 0 16 In
FLAG -64 32 B1
IOPIN -64 32 In
FLAG 0 48 B2
IOPIN 0 48 In
FLAG -64 64 B3
IOPIN -64 64 In
FLAG 496 -64 Y0
IOPIN 496 -64 Out
FLAG 496 -32 Y1
IOPIN 496 -32 Out
FLAG 496 0 Y2
IOPIN 496 0 Out
FLAG 496 32 Y3
IOPIN 496 32 Out
SYMBOL ALU_NAND 288 -32 R0
SYMATTR InstName X1
SYMBOL voltage 1120 -224 R0
WINDOW 123 0 0 Left 0
WINDOW 39 0 0 Left 0
SYMATTR InstName V1
SYMATTR Value 1
SYMBOL voltage 1328 -432 R0
WINDOW 123 0 0 Left 0
WINDOW 39 0 0 Left 0
SYMATTR InstName V2
SYMATTR Value 0
SYMBOL voltage 1536 -416 R0
WINDOW 123 0 0 Left 0
WINDOW 39 0 0 Left 0
SYMATTR InstName V3
SYMATTR Value 1
SYMBOL voltage 1312 -208 R0
WINDOW 123 0 0 Left 0
WINDOW 39 0 0 Left 0
SYMATTR InstName V4
SYMATTR Value 1
SYMBOL voltage 1552 -208 R0
WINDOW 123 0 0 Left 0
WINDOW 39 0 0 Left 0
SYMATTR InstName V5
SYMATTR Value 1
SYMBOL voltage 1312 -16 R0
WINDOW 123 0 0 Left 0
WINDOW 39 0 0 Left 0
SYMATTR InstName V6
SYMATTR Value 0
SYMBOL voltage 1536 16 R0
WINDOW 123 0 0 Left 0
WINDOW 39 0 0 Left 0
SYMATTR InstName V7
SYMATTR Value 0
SYMBOL voltage 1296 240 R0
WINDOW 123 0 0 Left 0
WINDOW 39 0 0 Left 0
SYMATTR InstName V8
SYMATTR Value 1
SYMBOL voltage 1536 240 R0
WINDOW 123 0 0 Left 0
WINDOW 39 0 0 Left 0
SYMATTR InstName V9
SYMATTR Value 0
TEXT 1088 56 Left 2 !.tran 2
