Version 4
SHEET 1 904 680
WIRE 608 -160 608 -208
WIRE 480 -96 384 -96
WIRE 816 -80 736 -80
WIRE 480 -64 384 -64
WIRE 816 -48 736 -48
WIRE 480 -32 384 -32
WIRE 816 -16 736 -16
WIRE 480 0 384 0
WIRE 816 16 736 16
WIRE 480 32 384 32
WIRE 480 64 384 64
WIRE 608 192 608 128
FLAG -64 384 0
FLAG -240 384 0
FLAG -384 384 0
FLAG -512 384 0
FLAG -384 -304 0
FLAG -304 32 0
FLAG -512 304 A3
IOPIN -512 304 In
FLAG -384 304 A2
IOPIN -384 304 In
FLAG -240 304 A1
IOPIN -240 304 In
FLAG -64 304 A0
IOPIN -64 304 In
FLAG -304 -48 B1
IOPIN -304 -48 In
FLAG -176 -48 B0
IOPIN -176 -48 In
FLAG -384 -384 Vdd
IOPIN -384 -384 In
FLAG -176 32 0
FLAG 384 -96 A0
IOPIN 384 -96 In
FLAG 384 -64 A1
IOPIN 384 -64 In
FLAG 384 -32 A2
IOPIN 384 -32 In
FLAG 384 0 A3
IOPIN 384 0 In
FLAG 384 32 B0
IOPIN 384 32 In
FLAG 384 64 B1
IOPIN 384 64 In
FLAG 608 -208 Vdd
IOPIN 608 -208 In
FLAG 608 192 0
FLAG 816 -80 Y0
IOPIN 816 -80 Out
FLAG 816 -48 Y1
IOPIN 816 -48 Out
FLAG 816 -16 Y2
IOPIN 816 -16 Out
FLAG 816 16 Y3
IOPIN 816 16 Out
SYMBOL ALU_ROR 608 -64 R0
SYMATTR InstName X1
SYMBOL voltage -384 -400 R0
WINDOW 123 0 0 Left 0
WINDOW 39 0 0 Left 0
SYMATTR InstName V1
SYMATTR Value 1
SYMBOL voltage -512 288 R0
WINDOW 123 0 0 Left 0
WINDOW 39 0 0 Left 0
SYMATTR InstName V2
SYMATTR Value 1
SYMBOL voltage -384 288 R0
WINDOW 123 0 0 Left 0
WINDOW 39 0 0 Left 0
SYMATTR InstName V3
SYMATTR Value 0
SYMBOL voltage -240 288 R0
WINDOW 123 0 0 Left 0
WINDOW 39 0 0 Left 0
SYMATTR InstName V4
SYMATTR Value 1
SYMBOL voltage -64 288 R0
WINDOW 123 0 0 Left 0
WINDOW 39 0 0 Left 0
SYMATTR InstName V5
SYMATTR Value 0
SYMBOL voltage -304 -64 R0
WINDOW 123 0 0 Left 0
WINDOW 39 0 0 Left 0
SYMATTR InstName V6
SYMATTR Value 1
SYMBOL voltage -176 -64 R0
WINDOW 123 0 0 Left 0
WINDOW 39 0 0 Left 0
SYMATTR InstName V7
SYMATTR Value 1
TEXT -272 -352 Left 2 !.tran 2
