Version 4
SHEET 1 1368 932
WIRE 320 48 320 0
WIRE 176 96 32 96
WIRE 208 112 96 112
WIRE 480 112 416 112
WIRE 176 128 32 128
WIRE 208 144 96 144
WIRE 480 144 416 144
WIRE 208 176 96 176
WIRE 480 176 416 176
WIRE 176 192 32 192
WIRE 208 208 96 208
WIRE 480 208 416 208
WIRE 176 224 32 224
WIRE 320 320 320 272
FLAG 320 0 Vdd
IOPIN 320 0 In
FLAG 32 96 A0
IOPIN 32 96 In
FLAG 96 112 A1
IOPIN 96 112 In
FLAG 32 128 A2
IOPIN 32 128 In
FLAG 96 144 A3
IOPIN 96 144 In
FLAG 96 176 B0
IOPIN 96 176 In
FLAG 32 192 B1
IOPIN 32 192 In
FLAG 96 208 B2
IOPIN 96 208 In
FLAG 32 224 B3
IOPIN 32 224 In
FLAG 480 112 Y0
IOPIN 480 112 Out
FLAG 480 144 Y1
IOPIN 480 144 Out
FLAG 480 176 Y2
IOPIN 480 176 Out
FLAG 480 208 Y3
IOPIN 480 208 Out
FLAG 320 320 0
FLAG 1296 256 Vdd
IOPIN 1296 256 In
FLAG 1296 336 0
FLAG 816 -48 A0
IOPIN 816 -48 In
FLAG 816 144 A1
IOPIN 816 144 In
FLAG 816 352 A2
IOPIN 816 352 In
FLAG 816 592 A3
IOPIN 816 592 In
FLAG 1024 -48 B0
IOPIN 1024 -48 In
FLAG 1024 144 B1
IOPIN 1024 144 In
FLAG 1024 352 B2
IOPIN 1024 352 In
FLAG 1024 592 B3
IOPIN 1024 592 In
FLAG 816 32 0
FLAG 1024 32 0
FLAG 816 224 0
FLAG 1024 224 0
FLAG 816 432 0
FLAG 1024 432 0
FLAG 1024 672 0
FLAG 816 672 0
SYMBOL ALU_XOR 336 144 R0
SYMATTR InstName X1
SYMBOL voltage 1296 240 R0
WINDOW 123 0 0 Left 0
WINDOW 39 0 0 Left 0
SYMATTR InstName V1
SYMATTR Value 1
SYMBOL voltage 816 -64 R0
WINDOW 123 0 0 Left 0
WINDOW 39 0 0 Left 0
SYMATTR InstName V2
SYMATTR Value 1
SYMBOL voltage 816 128 R0
WINDOW 123 0 0 Left 0
WINDOW 39 0 0 Left 0
SYMATTR InstName V3
SYMATTR Value 1
SYMBOL voltage 816 336 R0
WINDOW 123 0 0 Left 0
WINDOW 39 0 0 Left 0
SYMATTR InstName V4
SYMATTR Value 1
SYMBOL voltage 816 576 R0
WINDOW 123 0 0 Left 0
WINDOW 39 0 0 Left 0
SYMATTR InstName V5
SYMATTR Value 1
SYMBOL voltage 1024 -64 R0
WINDOW 123 0 0 Left 0
WINDOW 39 0 0 Left 0
SYMATTR InstName V6
SYMATTR Value 1
SYMBOL voltage 1024 128 R0
WINDOW 123 0 0 Left 0
WINDOW 39 0 0 Left 0
SYMATTR InstName V7
SYMATTR Value 0
SYMBOL voltage 1024 336 R0
WINDOW 123 0 0 Left 0
WINDOW 39 0 0 Left 0
SYMATTR InstName V8
SYMATTR Value 0
SYMBOL voltage 1024 576 R0
WINDOW 123 0 0 Left 0
WINDOW 39 0 0 Left 0
SYMATTR InstName V9
SYMATTR Value 1
TEXT 1232 64 Left 2 !.tran 2
