Version 4
SHEET 1 2684 1020
WIRE 1024 -736 1024 -864
WIRE 1056 -736 1056 -864
WIRE 1088 -736 1088 -864
WIRE 1120 -736 1120 -864
WIRE 960 -608 384 -608
WIRE 1328 -608 1216 -608
WIRE 1040 -368 1040 -480
WIRE 1072 -368 1072 -480
WIRE 1104 -368 1104 -480
WIRE 1136 -368 1136 -480
WIRE 1024 -304 1024 -448
WIRE 1056 -304 1056 -448
WIRE 1120 -304 1120 -448
WIRE 1152 -304 1152 -448
WIRE 80 -32 80 -96
WIRE 2320 -32 2320 -80
WIRE 2384 -32 2384 -96
WIRE 2224 32 2224 -864
WIRE 384 48 384 -608
WIRE 384 48 240 48
WIRE -64 96 -144 96
WIRE 2608 128 2496 128
WIRE -64 144 -144 144
WIRE -64 192 -144 192
WIRE 2320 400 2320 320
WIRE 2352 400 2352 320
WIRE 2384 400 2384 320
WIRE 80 432 80 352
FLAG -144 192 D0
IOPIN -144 192 In
FLAG -144 144 D1
IOPIN -144 144 In
FLAG -144 96 D2
IOPIN -144 96 In
FLAG 80 -96 Vdd
IOPIN 80 -96 In
FLAG 80 432 0
FLAG 1328 -608 0
FLAG 2384 -96 0
FLAG 2320 -80 Vdd
IOPIN 2320 -80 In
FLAG 2384 400 S0
IOPIN 2384 400 In
FLAG 2352 400 S1
IOPIN 2352 400 In
FLAG 2320 400 S2
IOPIN 2320 400 In
FLAG -1056 -896 Vdd
IOPIN -1056 -896 In
FLAG -1056 -816 0
FLAG -928 -816 0
FLAG -784 -816 0
FLAG -656 -800 0
FLAG -912 -528 0
FLAG -752 -528 0
FLAG -576 -528 0
FLAG -1376 -144 0
FLAG -816 -144 0
FLAG -1216 -144 0
FLAG -1024 -144 0
FLAG -1376 144 0
FLAG -1040 144 0
FLAG -1216 144 0
FLAG -848 160 0
FLAG -928 -896 D2
IOPIN -928 -896 In
FLAG -784 -896 D1
IOPIN -784 -896 In
FLAG -656 -880 D0
IOPIN -656 -880 In
FLAG -912 -608 S2
IOPIN -912 -608 In
FLAG -752 -608 S1
IOPIN -752 -608 In
FLAG -576 -608 S0
IOPIN -576 -608 In
FLAG -1376 -224 A3
IOPIN -1376 -224 In
FLAG -1216 -224 A2
IOPIN -1216 -224 In
FLAG -816 -224 A0
IOPIN -816 -224 In
FLAG -1024 -224 A1
IOPIN -1024 -224 In
FLAG -1376 64 B3
IOPIN -1376 64 In
FLAG -1040 64 B1
IOPIN -1040 64 In
FLAG -1216 64 B2
IOPIN -1216 64 In
FLAG -848 80 B0
IOPIN -848 80 In
FLAG 1024 -304 A0
IOPIN 1024 -304 In
FLAG 1040 -368 A1
IOPIN 1040 -368 In
FLAG 1056 -304 A2
IOPIN 1056 -304 In
FLAG 1072 -368 A3
IOPIN 1072 -368 In
FLAG 1104 -368 B0
IOPIN 1104 -368 In
FLAG 1120 -304 B1
IOPIN 1120 -304 In
FLAG 1136 -368 B2
IOPIN 1136 -368 In
FLAG 1152 -304 B3
IOPIN 1152 -304 In
FLAG 2608 128 Y
IOPIN 2608 128 Out
SYMBOL ALU_DEC 96 80 R0
SYMATTR InstName X1
SYMBOL ALU_MUX 2352 96 R0
SYMATTR InstName X5
SYMBOL ALU_OR 1056 -624 R270
SYMATTR InstName X2
SYMBOL voltage -1056 -912 R0
WINDOW 123 0 0 Left 0
WINDOW 39 0 0 Left 0
SYMATTR InstName V1
SYMATTR Value 1
SYMBOL voltage -928 -912 R0
WINDOW 123 0 0 Left 0
WINDOW 39 0 0 Left 0
SYMATTR InstName V2
SYMATTR Value 0
SYMBOL voltage -784 -912 R0
WINDOW 123 0 0 Left 0
WINDOW 39 0 0 Left 0
SYMATTR InstName V3
SYMATTR Value 0
SYMBOL voltage -656 -896 R0
WINDOW 123 0 0 Left 0
WINDOW 39 0 0 Left 0
SYMATTR InstName V4
SYMATTR Value 0
SYMBOL voltage -912 -624 R0
WINDOW 123 0 0 Left 0
WINDOW 39 0 0 Left 0
SYMATTR InstName V5
SYMATTR Value 0
SYMBOL voltage -752 -624 R0
WINDOW 123 0 0 Left 0
WINDOW 39 0 0 Left 0
SYMATTR InstName V6
SYMATTR Value 0
SYMBOL voltage -576 -624 R0
WINDOW 123 0 0 Left 0
WINDOW 39 0 0 Left 0
SYMATTR InstName V7
SYMATTR Value 0
SYMBOL voltage -1376 -240 R0
WINDOW 123 0 0 Left 0
WINDOW 39 0 0 Left 0
SYMATTR InstName V8
SYMATTR Value 1
SYMBOL voltage -1216 -240 R0
WINDOW 123 0 0 Left 0
WINDOW 39 0 0 Left 0
SYMATTR InstName V9
SYMATTR Value 1
SYMBOL voltage -1376 48 R0
WINDOW 123 0 0 Left 0
WINDOW 39 0 0 Left 0
SYMATTR InstName V10
SYMATTR Value 0
SYMBOL voltage -1216 48 R0
WINDOW 123 0 0 Left 0
WINDOW 39 0 0 Left 0
SYMATTR InstName V11
SYMATTR Value 0
SYMBOL voltage -816 -240 R0
WINDOW 123 0 0 Left 0
WINDOW 39 0 0 Left 0
SYMATTR InstName V12
SYMATTR Value 1
SYMBOL voltage -1024 -240 R0
WINDOW 123 0 0 Left 0
WINDOW 39 0 0 Left 0
SYMATTR InstName V13
SYMATTR Value 1
SYMBOL voltage -1040 48 R0
WINDOW 123 0 0 Left 0
WINDOW 39 0 0 Left 0
SYMATTR InstName V14
SYMATTR Value 0
SYMBOL voltage -848 64 R0
WINDOW 123 0 0 Left 0
WINDOW 39 0 0 Left 0
SYMATTR InstName V15
SYMATTR Value 0
TEXT -1280 -600 Left 2 !.tran 16
