Version 4
SHEET 1 3240 680
WIRE 576 -96 304 -96
WIRE 1280 -96 576 -96
WIRE 2016 -96 1280 -96
WIRE 2944 -96 2016 -96
WIRE 560 -48 304 -48
WIRE 1248 -48 560 -48
WIRE 2112 -48 1248 -48
WIRE 2912 -48 2112 -48
WIRE 528 0 304 0
WIRE 1344 0 528 0
WIRE 2080 0 1344 0
WIRE 2880 0 2080 0
WIRE 608 48 304 48
WIRE 1312 48 608 48
WIRE 2048 48 1312 48
WIRE 2848 48 2048 48
WIRE 720 176 720 144
WIRE 1456 176 1456 144
WIRE 2224 176 2224 144
WIRE 3056 176 3056 128
WIRE 688 208 688 176
WIRE 1424 208 1424 176
WIRE 2192 208 2192 176
WIRE 3024 208 3024 176
WIRE 608 272 608 48
WIRE 1344 272 1344 0
WIRE 2112 272 2112 -48
WIRE 2944 272 2944 -96
WIRE 576 304 576 -96
WIRE 608 304 576 304
WIRE 1312 304 1312 48
WIRE 1344 304 1312 304
WIRE 2080 304 2080 0
WIRE 2112 304 2080 304
WIRE 2912 304 2912 -48
WIRE 2944 304 2912 304
WIRE 816 320 784 320
WIRE 1552 320 1520 320
WIRE 2320 320 2288 320
WIRE 3152 320 3120 320
WIRE 560 336 560 -48
WIRE 608 336 560 336
WIRE 1280 336 1280 -96
WIRE 1344 336 1280 336
WIRE 2048 336 2048 48
WIRE 2112 336 2048 336
WIRE 2880 336 2880 0
WIRE 2944 336 2880 336
WIRE 528 368 528 0
WIRE 608 368 528 368
WIRE 1248 368 1248 -48
WIRE 1344 368 1248 368
WIRE 2016 368 2016 -96
WIRE 2112 368 2016 368
WIRE 2848 368 2848 48
WIRE 2944 368 2848 368
WIRE 688 496 688 432
WIRE 688 496 304 496
WIRE 1424 496 1424 432
WIRE 1424 496 688 496
WIRE 2192 496 2192 432
WIRE 2192 496 1424 496
WIRE 3024 496 3024 432
WIRE 3024 496 2192 496
WIRE 720 544 720 432
WIRE 720 544 304 544
WIRE 1456 544 1456 432
WIRE 1456 544 720 544
WIRE 2224 544 2224 432
WIRE 2224 544 1456 544
WIRE 3056 544 3056 432
WIRE 3056 544 2224 544
FLAG 688 176 Vdd
IOPIN 688 176 In
FLAG 1424 176 Vdd
IOPIN 1424 176 In
FLAG 2192 176 Vdd
IOPIN 2192 176 In
FLAG 3024 176 Vdd
IOPIN 3024 176 In
FLAG 3152 320 Y3
IOPIN 3152 320 Out
FLAG 2320 320 Y2
IOPIN 2320 320 Out
FLAG 1552 320 Y1
IOPIN 1552 320 Out
FLAG 816 320 Y0
IOPIN 816 320 Out
FLAG 304 -96 A3
IOPIN 304 -96 In
FLAG 304 -48 A2
IOPIN 304 -48 In
FLAG 304 0 A1
IOPIN 304 0 In
FLAG 304 48 A0
IOPIN 304 48 In
FLAG 304 496 B1
IOPIN 304 496 In
FLAG 304 544 B0
IOPIN 304 544 In
FLAG 720 144 Gnd
IOPIN 720 144 In
FLAG 1456 144 Gnd
IOPIN 1456 144 In
FLAG 2224 144 Gnd
IOPIN 2224 144 In
FLAG 3056 128 Gnd
IOPIN 3056 128 In
SYMBOL 41_MUX 720 304 R0
SYMATTR InstName X1
SYMBOL 41_MUX 1456 304 R0
SYMATTR InstName X2
SYMBOL 41_MUX 2224 304 R0
SYMATTR InstName X3
SYMBOL 41_MUX 3056 304 R0
SYMATTR InstName X4
