Version 4
SHEET 1 3116 3720
WIRE 656 -1040 656 -1120
WIRE 464 -976 464 -1008
WIRE 544 -976 464 -976
WIRE 528 -960 -1696 -960
WIRE 1776 -960 800 -960
WIRE 560 -944 -1072 -944
WIRE 528 -928 -480 -928
WIRE 656 -800 656 -864
WIRE 624 -448 624 -528
WIRE 464 -384 464 -416
WIRE 512 -384 464 -384
WIRE -1696 -368 -1696 -960
WIRE 496 -368 -1696 -368
WIRE 1728 -368 768 -368
WIRE -1072 -352 -1072 -944
WIRE 528 -352 -1072 -352
WIRE 496 -336 -720 -336
WIRE 624 -224 624 -272
WIRE 624 -48 624 -80
WIRE 464 16 464 -16
WIRE 512 16 464 16
WIRE -1696 32 -1696 -368
WIRE 496 32 -1696 32
WIRE 1664 32 768 32
WIRE 528 48 -1408 48
WIRE -480 64 -480 -928
WIRE 496 64 -480 64
WIRE 624 192 624 128
WIRE 624 448 624 400
WIRE 464 512 464 480
WIRE 512 512 464 512
WIRE -1696 528 -1696 32
WIRE 496 528 -1696 528
WIRE 1600 528 768 528
WIRE -1408 544 -1408 48
WIRE 528 544 -1408 544
WIRE -720 560 -720 -336
WIRE 496 560 -720 560
WIRE 624 672 624 624
WIRE 2160 704 2160 624
WIRE 1776 784 1776 -960
WIRE 1984 784 1776 784
WIRE 1728 800 1728 -368
WIRE 1952 800 1728 800
WIRE 1664 816 1664 32
WIRE 1984 816 1664 816
WIRE 1600 832 1600 528
WIRE 1952 832 1600 832
WIRE 1952 864 1600 864
WIRE 2496 864 2352 864
WIRE 1984 880 1664 880
WIRE 1952 896 1728 896
WIRE 1984 912 1776 912
WIRE 624 976 624 928
WIRE 464 1040 464 1008
WIRE 512 1040 464 1040
WIRE -1072 1056 -1072 -352
WIRE 496 1056 -1072 1056
WIRE 1600 1056 1600 864
WIRE 1600 1056 768 1056
WIRE 528 1072 -1936 1072
WIRE 2160 1072 2160 1024
WIRE -480 1088 -480 64
WIRE 496 1088 -480 1088
WIRE 624 1216 624 1152
WIRE 608 1520 608 1456
WIRE 464 1584 464 1552
WIRE 496 1584 464 1584
WIRE -1936 1600 -1936 1072
WIRE 480 1600 -1936 1600
WIRE 1664 1600 1664 880
WIRE 1664 1600 752 1600
WIRE -1072 1616 -1072 1056
WIRE 512 1616 -1072 1616
WIRE -720 1632 -720 560
WIRE 480 1632 -720 1632
WIRE 608 1760 608 1696
WIRE 608 2080 608 2032
WIRE 464 2144 464 2112
WIRE 496 2144 464 2144
WIRE -1936 2160 -1936 1600
WIRE 480 2160 -1936 2160
WIRE 1728 2160 1728 896
WIRE 1728 2160 752 2160
WIRE -1408 2176 -1408 544
WIRE 512 2176 -1408 2176
WIRE -480 2192 -480 1088
WIRE 480 2192 -480 2192
WIRE 608 2304 608 2256
WIRE 608 2608 608 2528
WIRE 464 2672 464 2640
WIRE 496 2672 464 2672
WIRE -1936 2688 -1936 2160
WIRE 480 2688 -1936 2688
WIRE 1776 2688 1776 912
WIRE 1776 2688 752 2688
WIRE -1408 2704 -1408 2176
WIRE 512 2704 -1408 2704
WIRE -720 2720 -720 1632
WIRE 480 2720 -720 2720
WIRE 608 2832 608 2784
WIRE -480 3248 -480 2192
WIRE -1696 3264 -1696 528
WIRE -1072 3264 -1072 1616
WIRE -560 3360 -624 3360
WIRE -368 3360 -416 3360
WIRE -1776 3376 -1824 3376
WIRE -1584 3376 -1632 3376
WIRE -1152 3376 -1216 3376
WIRE -944 3376 -1008 3376
WIRE -1936 3536 -1936 2688
WIRE -1696 3536 -1696 3488
WIRE -1696 3536 -1936 3536
WIRE -1408 3536 -1408 2704
WIRE -1072 3536 -1072 3488
WIRE -1072 3536 -1408 3536
WIRE -720 3536 -720 2720
WIRE -480 3536 -480 3472
WIRE -480 3536 -720 3536
WIRE -1936 3616 -1936 3536
WIRE -1408 3616 -1408 3536
WIRE -720 3632 -720 3536
WIRE 0 0 0 0
FLAG 464 2640 H
IOPIN 464 2640 In
FLAG 464 2112 G
IOPIN 464 2112 In
FLAG 464 1552 F
IOPIN 464 1552 In
FLAG 464 1008 E
IOPIN 464 1008 In
FLAG 464 480 D
IOPIN 464 480 In
FLAG 464 -16 C
IOPIN 464 -16 In
FLAG 464 -416 B
IOPIN 464 -416 In
FLAG 464 -1008 A
IOPIN 464 -1008 In
FLAG -720 3632 S0
IOPIN -720 3632 In
FLAG -1408 3616 S1
IOPIN -1408 3616 In
FLAG -1936 3616 S2
IOPIN -1936 3616 In
FLAG 656 -1120 Vdd
IOPIN 656 -1120 In
FLAG 656 -800 Gnd
IOPIN 656 -800 In
FLAG 624 -528 Vdd
IOPIN 624 -528 In
FLAG 624 -224 Gnd
IOPIN 624 -224 In
FLAG 624 -80 Vdd
IOPIN 624 -80 In
FLAG 624 192 Gnd
IOPIN 624 192 In
FLAG 624 672 Gnd
IOPIN 624 672 In
FLAG 624 400 Vdd
IOPIN 624 400 In
FLAG 624 928 Vdd
IOPIN 624 928 In
FLAG 608 1456 Vdd
IOPIN 608 1456 In
FLAG 624 1216 Gnd
IOPIN 624 1216 In
FLAG 608 1760 Gnd
IOPIN 608 1760 In
FLAG 608 2032 Vdd
IOPIN 608 2032 In
FLAG 608 2528 Vdd
IOPIN 608 2528 In
FLAG 608 2304 Gnd
IOPIN 608 2304 In
FLAG 608 2832 Gnd
IOPIN 608 2832 In
FLAG 2496 864 Y
IOPIN 2496 864 Out
FLAG 2160 624 Vdd
IOPIN 2160 624 In
FLAG 2160 1072 Gnd
IOPIN 2160 1072 In
FLAG -944 3376 Gnd
IOPIN -944 3376 In
FLAG -368 3360 Gnd
IOPIN -368 3360 In
FLAG -1584 3376 Gnd
IOPIN -1584 3376 In
FLAG -1824 3376 Vdd
IOPIN -1824 3376 In
FLAG -1216 3376 Vdd
IOPIN -1216 3376 In
FLAG -624 3360 Vdd
IOPIN -624 3360 In
SYMBOL 4iAND 640 -368 R0
SYMATTR InstName X1
SYMBOL 4iAND 640 32 R0
SYMATTR InstName X2
SYMBOL 4iAND 640 528 R0
SYMATTR InstName X3
SYMBOL 4iAND 640 1056 R0
SYMATTR InstName X4
SYMBOL 4iAND 624 1600 R0
SYMATTR InstName X5
SYMBOL 4iAND 624 2160 R0
SYMATTR InstName X6
SYMBOL 4iAND 624 2688 R0
SYMATTR InstName X7
SYMBOL 4iAND 672 -960 R0
SYMATTR InstName X8
SYMBOL NOT -496 3360 R270
SYMATTR InstName X9
SYMBOL NOT -1088 3376 R270
SYMATTR InstName X10
SYMBOL NOT -1712 3376 R270
SYMATTR InstName X11
SYMBOL 8i_OR 2208 832 R0
SYMATTR InstName X12
