Version 4
SHEET 1 1304 740
WIRE 64 128 64 80
WIRE -96 192 -240 192
WIRE 272 192 192 192
WIRE -64 208 -160 208
WIRE -96 224 -240 224
WIRE 272 224 192 224
WIRE -64 240 -160 240
WIRE 272 256 192 256
WIRE -64 272 -160 272
WIRE -96 288 -240 288
WIRE 272 288 192 288
WIRE -64 304 -160 304
WIRE -96 320 -240 320
WIRE 64 448 64 384
FLAG 800 176 Vdd
IOPIN 800 176 In
FLAG 1008 -32 A0
IOPIN 1008 -32 In
FLAG 1216 -16 B0
IOPIN 1216 -16 In
FLAG 992 192 A1
IOPIN 992 192 In
FLAG 1232 192 B1
IOPIN 1232 192 In
FLAG 992 384 A2
IOPIN 992 384 In
FLAG 1216 416 B2
IOPIN 1216 416 In
FLAG 976 640 A3
IOPIN 976 640 In
FLAG 1216 640 B3
IOPIN 1216 640 In
FLAG 800 256 0
FLAG 1008 48 0
FLAG 1216 64 0
FLAG 992 272 0
FLAG 1232 272 0
FLAG 992 464 0
FLAG 1216 496 0
FLAG 976 720 0
FLAG 1216 720 0
FLAG 64 80 Vdd
IOPIN 64 80 In
FLAG 64 448 0
FLAG 272 192 Y0
IOPIN 272 192 Out
FLAG 272 224 Y1
IOPIN 272 224 Out
FLAG 272 256 Y2
IOPIN 272 256 Out
FLAG 272 288 Y3
IOPIN 272 288 Out
FLAG -240 192 A0
IOPIN -240 192 In
FLAG -160 208 A1
IOPIN -160 208 In
FLAG -240 224 A2
IOPIN -240 224 In
FLAG -160 240 A3
IOPIN -160 240 In
FLAG -160 272 B0
IOPIN -160 272 In
FLAG -240 288 B1
IOPIN -240 288 In
FLAG -160 304 B2
IOPIN -160 304 In
FLAG -240 320 B3
IOPIN -240 320 In
SYMBOL ALU_OR 80 224 R0
SYMATTR InstName X1
SYMBOL voltage 800 160 R0
WINDOW 123 0 0 Left 0
WINDOW 39 0 0 Left 0
SYMATTR InstName V1
SYMATTR Value 1
SYMBOL voltage 1008 -48 R0
WINDOW 123 0 0 Left 0
WINDOW 39 0 0 Left 0
SYMATTR InstName V2
SYMATTR Value 0
SYMBOL voltage 1216 -32 R0
WINDOW 123 0 0 Left 0
WINDOW 39 0 0 Left 0
SYMATTR InstName V3
SYMATTR Value 1
SYMBOL voltage 992 176 R0
WINDOW 123 0 0 Left 0
WINDOW 39 0 0 Left 0
SYMATTR InstName V4
SYMATTR Value 1
SYMBOL voltage 1232 176 R0
WINDOW 123 0 0 Left 0
WINDOW 39 0 0 Left 0
SYMATTR InstName V5
SYMATTR Value 1
SYMBOL voltage 992 368 R0
WINDOW 123 0 0 Left 0
WINDOW 39 0 0 Left 0
SYMATTR InstName V6
SYMATTR Value 0
SYMBOL voltage 1216 400 R0
WINDOW 123 0 0 Left 0
WINDOW 39 0 0 Left 0
SYMATTR InstName V7
SYMATTR Value 0
SYMBOL voltage 976 624 R0
WINDOW 123 0 0 Left 0
WINDOW 39 0 0 Left 0
SYMATTR InstName V8
SYMATTR Value 1
SYMBOL voltage 1216 624 R0
WINDOW 123 0 0 Left 0
WINDOW 39 0 0 Left 0
SYMATTR InstName V9
SYMATTR Value 0
TEXT 768 440 Left 2 !.tran 2
