Version 4
SHEET 1 1288 680
WIRE 992 64 992 16
WIRE 896 128 784 128
WIRE 896 160 784 160
WIRE 1200 160 1104 160
WIRE 896 192 784 192
WIRE 1200 192 1104 192
WIRE 896 224 784 224
WIRE 1200 224 1104 224
WIRE 896 256 784 256
WIRE 1200 256 1104 256
WIRE 896 288 784 288
WIRE 992 400 992 352
FLAG 128 528 0
FLAG -48 528 0
FLAG -192 528 0
FLAG -320 528 0
FLAG -192 -160 0
FLAG -112 176 0
FLAG -320 448 A3
IOPIN -320 448 In
FLAG -192 448 A2
IOPIN -192 448 In
FLAG -48 448 A1
IOPIN -48 448 In
FLAG 128 448 A0
IOPIN 128 448 In
FLAG -112 96 B1
IOPIN -112 96 In
FLAG 16 96 B0
IOPIN 16 96 In
FLAG -192 -240 Vdd
IOPIN -192 -240 In
FLAG 16 176 0
FLAG 784 128 A0
IOPIN 784 128 In
FLAG 784 160 A1
IOPIN 784 160 In
FLAG 784 192 A2
IOPIN 784 192 In
FLAG 784 224 A3
IOPIN 784 224 In
FLAG 784 256 B0
IOPIN 784 256 In
FLAG 784 288 B1
IOPIN 784 288 In
FLAG 992 16 Vdd
IOPIN 992 16 In
FLAG 992 400 0
FLAG 1200 160 Y0
IOPIN 1200 160 Out
FLAG 1200 192 Y1
IOPIN 1200 192 Out
FLAG 1200 224 Y2
IOPIN 1200 224 Out
FLAG 1200 256 Y3
IOPIN 1200 256 Out
SYMBOL voltage -192 -256 R0
WINDOW 123 0 0 Left 0
WINDOW 39 0 0 Left 0
SYMATTR InstName V1
SYMATTR Value 1
SYMBOL voltage -320 432 R0
WINDOW 123 0 0 Left 0
WINDOW 39 0 0 Left 0
SYMATTR InstName V2
SYMATTR Value 1
SYMBOL voltage -192 432 R0
WINDOW 123 0 0 Left 0
WINDOW 39 0 0 Left 0
SYMATTR InstName V3
SYMATTR Value 0
SYMBOL voltage -48 432 R0
WINDOW 123 0 0 Left 0
WINDOW 39 0 0 Left 0
SYMATTR InstName V4
SYMATTR Value 0
SYMBOL voltage 128 432 R0
WINDOW 123 0 0 Left 0
WINDOW 39 0 0 Left 0
SYMATTR InstName V5
SYMATTR Value 1
SYMBOL voltage -112 80 R0
WINDOW 123 0 0 Left 0
WINDOW 39 0 0 Left 0
SYMATTR InstName V6
SYMATTR Value 0
SYMBOL voltage 16 80 R0
WINDOW 123 0 0 Left 0
WINDOW 39 0 0 Left 0
SYMATTR InstName V7
SYMATTR Value 0
SYMBOL ALU_ROL 1024 160 R0
SYMATTR InstName X1
TEXT -80 -208 Left 2 !.tran 2
