Version 4
SHEET 1 880 868
WIRE 368 -32 368 -96
WIRE 432 -32 432 -96
WIRE 240 64 112 64
WIRE 240 96 112 96
WIRE 624 112 544 112
WIRE 240 128 112 128
WIRE 624 144 544 144
WIRE 240 160 112 160
WIRE 624 176 544 176
WIRE 240 192 112 192
WIRE 624 208 544 208
WIRE 240 224 112 224
WIRE 240 256 112 256
WIRE 240 288 112 288
WIRE 368 448 368 368
WIRE 400 448 400 368
WIRE 432 448 432 368
FLAG -784 -320 Vdd
IOPIN -784 -320 In
FLAG -368 0 A0
IOPIN -368 0 In
FLAG -640 0 A1
IOPIN -640 0 In
FLAG -864 0 A2
IOPIN -864 0 In
FLAG -1104 0 A3
IOPIN -1104 0 In
FLAG -784 -240 0
FLAG -1104 80 0
FLAG -864 80 0
FLAG -640 80 0
FLAG -368 80 0
FLAG -608 288 B1
IOPIN -608 288 In
FLAG -880 272 B2
IOPIN -880 272 In
FLAG -1184 288 B3
IOPIN -1184 288 In
FLAG -320 288 B0
IOPIN -320 288 In
FLAG -1184 368 0
FLAG -880 352 0
FLAG -608 368 0
FLAG -320 368 0
FLAG -432 624 S0
IOPIN -432 624 In
FLAG -752 608 S1
IOPIN -752 608 In
FLAG -1072 608 S2
IOPIN -1072 608 In
FLAG -1072 688 0
FLAG -752 688 0
FLAG -432 704 0
FLAG 368 -96 Vdd
IOPIN 368 -96 In
FLAG 112 64 A0
IOPIN 112 64 In
FLAG 112 96 A1
IOPIN 112 96 In
FLAG 112 128 A2
IOPIN 112 128 In
FLAG 112 160 A3
IOPIN 112 160 In
FLAG 112 192 B0
IOPIN 112 192 In
FLAG 112 224 B1
IOPIN 112 224 In
FLAG 112 256 B2
IOPIN 112 256 In
FLAG 112 288 B3
IOPIN 112 288 In
FLAG 432 448 S0
IOPIN 432 448 In
FLAG 400 448 S1
IOPIN 400 448 In
FLAG 368 448 S2
IOPIN 368 448 In
FLAG 624 112 Y0
IOPIN 624 112 Out
FLAG 624 144 Y1
IOPIN 624 144 Out
FLAG 624 176 Y2
IOPIN 624 176 Out
FLAG 624 208 Y3
IOPIN 624 208 Out
FLAG 432 -96 0
SYMBOL ALU 400 96 R0
SYMATTR InstName X1
SYMBOL voltage -784 -336 R0
WINDOW 123 0 0 Left 0
WINDOW 39 0 0 Left 0
SYMATTR InstName V1
SYMATTR Value 1
SYMBOL voltage -1104 -16 R0
WINDOW 123 0 0 Left 0
WINDOW 39 0 0 Left 0
SYMATTR InstName V2
SYMATTR Value 1
SYMBOL voltage -864 -16 R0
WINDOW 123 0 0 Left 0
WINDOW 39 0 0 Left 0
SYMATTR InstName V3
SYMATTR Value 0
SYMBOL voltage -640 -16 R0
WINDOW 123 0 0 Left 0
WINDOW 39 0 0 Left 0
SYMATTR InstName V4
SYMATTR Value 1
SYMBOL voltage -368 -16 R0
WINDOW 123 0 0 Left 0
WINDOW 39 0 0 Left 0
SYMATTR InstName V5
SYMATTR Value 0
SYMBOL voltage -1184 272 R0
WINDOW 123 0 0 Left 0
WINDOW 39 0 0 Left 0
SYMATTR InstName V6
SYMATTR Value 0
SYMBOL voltage -880 256 R0
WINDOW 123 0 0 Left 0
WINDOW 39 0 0 Left 0
SYMATTR InstName V7
SYMATTR Value 0
SYMBOL voltage -608 272 R0
WINDOW 123 0 0 Left 0
WINDOW 39 0 0 Left 0
SYMATTR InstName V8
SYMATTR Value 1
SYMBOL voltage -320 272 R0
WINDOW 123 0 0 Left 0
WINDOW 39 0 0 Left 0
SYMATTR InstName V9
SYMATTR Value 1
SYMBOL voltage -1072 592 R0
WINDOW 123 0 0 Left 0
WINDOW 39 0 0 Left 0
SYMATTR InstName V10
SYMATTR Value 1
SYMBOL voltage -752 592 R0
WINDOW 123 0 0 Left 0
WINDOW 39 0 0 Left 0
SYMATTR InstName V11
SYMATTR Value 0
SYMBOL voltage -432 608 R0
WINDOW 123 0 0 Left 0
WINDOW 39 0 0 Left 0
SYMATTR InstName V12
SYMATTR Value 1
TEXT -552 -280 Left 2 !.tran 2
