Version 4
SHEET 1 880 680
WIRE 336 48 336 0
WIRE 208 112 112 112
WIRE 208 144 112 144
WIRE 624 144 464 144
WIRE 208 176 112 176
WIRE 544 176 464 176
WIRE 208 208 112 208
WIRE 624 208 464 208
WIRE 208 240 112 240
WIRE 544 240 464 240
WIRE 208 272 112 272
WIRE 336 384 336 336
FLAG 336 0 Vdd
IOPIN 336 0 In
FLAG 112 112 A0
IOPIN 112 112 In
FLAG 112 144 A1
IOPIN 112 144 In
FLAG 112 176 A2
IOPIN 112 176 In
FLAG 112 208 A3
IOPIN 112 208 In
FLAG 112 240 B0
IOPIN 112 240 In
FLAG 112 272 B1
IOPIN 112 272 In
FLAG 624 144 Y0
IOPIN 624 144 Out
FLAG 544 176 Y1
IOPIN 544 176 Out
FLAG 624 208 Y2
IOPIN 624 208 Out
FLAG 544 240 Y3
IOPIN 544 240 Out
FLAG 336 384 0
FLAG -304 224 0
FLAG -480 224 0
FLAG -736 224 0
FLAG -832 224 0
FLAG -944 224 0
FLAG -1040 224 0
FLAG -592 -128 0
FLAG -592 -208 Vdd
IOPIN -592 -208 In
FLAG -1040 144 A3
IOPIN -1040 144 In
FLAG -944 144 A2
IOPIN -944 144 In
FLAG -832 144 A1
IOPIN -832 144 In
FLAG -736 144 A0
IOPIN -736 144 In
FLAG -480 144 B1
IOPIN -480 144 In
FLAG -304 144 B0
IOPIN -304 144 In
SYMBOL ALU_ASR 352 144 R0
SYMATTR InstName X1
SYMBOL voltage -592 -224 R0
WINDOW 123 0 0 Left 0
WINDOW 39 0 0 Left 0
SYMATTR InstName V1
SYMATTR Value 1
SYMBOL voltage -1040 128 R0
WINDOW 123 0 0 Left 0
WINDOW 39 0 0 Left 0
SYMATTR InstName V2
SYMATTR Value 0
SYMBOL voltage -944 128 R0
WINDOW 123 0 0 Left 0
WINDOW 39 0 0 Left 0
SYMATTR InstName V3
SYMATTR Value 1
SYMBOL voltage -832 128 R0
WINDOW 123 0 0 Left 0
WINDOW 39 0 0 Left 0
SYMATTR InstName V4
SYMATTR Value 1
SYMBOL voltage -736 128 R0
WINDOW 123 0 0 Left 0
WINDOW 39 0 0 Left 0
SYMATTR InstName V5
SYMATTR Value 1
SYMBOL voltage -480 128 R0
WINDOW 123 0 0 Left 0
WINDOW 39 0 0 Left 0
SYMATTR InstName V6
SYMATTR Value 0
SYMBOL voltage -304 128 R0
WINDOW 123 0 0 Left 0
WINDOW 39 0 0 Left 0
SYMATTR InstName V7
SYMATTR Value 0
TEXT -416 -80 Left 2 !.tran 2
