Version 4
SHEET 1 2024 2760
WIRE -640 -32 -640 -160
WIRE -464 -32 -640 -32
WIRE -144 -32 -144 -160
WIRE 48 -32 -144 -32
WIRE 336 -32 336 -160
WIRE 528 -32 336 -32
WIRE -464 48 -464 -32
WIRE 48 48 48 -32
WIRE 528 48 528 -32
WIRE -528 160 -560 160
WIRE -352 160 -384 160
WIRE -16 160 -48 160
WIRE 160 160 128 160
WIRE 464 160 432 160
WIRE 640 160 608 160
WIRE 976 352 976 320
WIRE -464 400 -464 272
WIRE 848 400 -464 400
WIRE 48 432 48 272
WIRE 848 432 48 432
WIRE 1728 432 1136 432
WIRE 528 464 528 272
WIRE 848 464 528 464
WIRE 976 544 976 512
WIRE 1280 608 1280 576
WIRE -464 656 -464 400
WIRE 1152 656 -464 656
WIRE 48 688 48 432
WIRE 1152 688 48 688
WIRE 1728 688 1440 688
WIRE 336 720 336 -32
WIRE 1152 720 336 720
WIRE 1280 800 1280 768
WIRE 976 896 976 864
WIRE -464 944 -464 656
WIRE 848 944 -464 944
WIRE -144 976 -144 -32
WIRE 848 976 -144 976
WIRE 1728 976 1136 976
WIRE 528 1008 528 464
WIRE 848 1008 528 1008
WIRE 976 1072 976 1056
WIRE 1296 1152 1296 1120
WIRE -464 1200 -464 944
WIRE 1168 1200 -464 1200
WIRE -144 1232 -144 976
WIRE 1168 1232 -144 1232
WIRE 1728 1232 1456 1232
WIRE 336 1264 336 720
WIRE 1168 1264 336 1264
WIRE 1296 1344 1296 1312
WIRE 992 1424 992 1392
WIRE -640 1472 -640 -32
WIRE 864 1472 -640 1472
WIRE 48 1504 48 688
WIRE 864 1504 48 1504
WIRE 1728 1504 1152 1504
WIRE 528 1536 528 1008
WIRE 864 1536 528 1536
WIRE 992 1616 992 1584
WIRE 1312 1728 1312 1696
WIRE -640 1776 -640 1472
WIRE 1184 1776 -640 1776
WIRE 48 1808 48 1504
WIRE 1184 1808 48 1808
WIRE 1728 1808 1472 1808
WIRE 336 1840 336 1264
WIRE 1184 1840 336 1840
WIRE 1312 1920 1312 1888
WIRE 1008 2000 1008 1968
WIRE -640 2048 -640 1776
WIRE 880 2048 -640 2048
WIRE -144 2080 -144 1232
WIRE 880 2080 -144 2080
WIRE 1728 2080 1168 2080
WIRE 528 2112 528 1536
WIRE 880 2112 528 2112
WIRE 1008 2192 1008 2160
WIRE 1344 2304 1344 2272
WIRE -640 2352 -640 2048
WIRE 1216 2352 -640 2352
WIRE -144 2384 -144 2080
WIRE 1216 2384 -144 2384
WIRE 1728 2384 1504 2384
WIRE 336 2416 336 1840
WIRE 1216 2416 336 2416
WIRE 1344 2496 1344 2464
FLAG 336 -160 D0
IOPIN 336 -160 In
FLAG -144 -160 D1
IOPIN -144 -160 In
FLAG -640 -160 D2
IOPIN -640 -160 In
FLAG 1344 2272 Vdd
IOPIN 1344 2272 In
FLAG 1008 1968 Vdd
IOPIN 1008 1968 In
FLAG 1312 1696 Vdd
IOPIN 1312 1696 In
FLAG 992 1392 Vdd
IOPIN 992 1392 In
FLAG 1296 1120 Vdd
IOPIN 1296 1120 In
FLAG 976 864 Vdd
IOPIN 976 864 In
FLAG 1280 576 Vdd
IOPIN 1280 576 In
FLAG 976 320 Vdd
IOPIN 976 320 In
FLAG 640 160 Vdd
IOPIN 640 160 In
FLAG 160 160 Vdd
IOPIN 160 160 In
FLAG -352 160 Vdd
IOPIN -352 160 In
FLAG 1728 432 Y0
IOPIN 1728 432 Out
FLAG 1728 688 Y1
IOPIN 1728 688 Out
FLAG 1728 976 Y2
IOPIN 1728 976 Out
FLAG 1728 1232 Y3
IOPIN 1728 1232 Out
FLAG 1728 1504 Y4
IOPIN 1728 1504 Out
FLAG 1728 1808 Y5
IOPIN 1728 1808 Out
FLAG 1728 2080 Y6
IOPIN 1728 2080 Out
FLAG 1728 2384 Y7
IOPIN 1728 2384 Out
FLAG -560 160 Gnd
IOPIN -560 160 In
FLAG -48 160 Gnd
IOPIN -48 160 In
FLAG 432 160 Gnd
IOPIN 432 160 In
FLAG 976 544 Gnd
IOPIN 976 544 In
FLAG 1280 800 Gnd
IOPIN 1280 800 In
FLAG 1296 1344 Gnd
IOPIN 1296 1344 In
FLAG 976 1072 Gnd
IOPIN 976 1072 In
FLAG 992 1616 Gnd
IOPIN 992 1616 In
FLAG 1312 1920 Gnd
IOPIN 1312 1920 In
FLAG 1008 2192 Gnd
IOPIN 1008 2192 In
FLAG 1344 2496 Gnd
IOPIN 1344 2496 In
SYMBOL NOT 64 160 R90
SYMATTR InstName X1
SYMBOL NOT 544 160 R90
SYMATTR InstName X2
SYMBOL NOT -448 160 R90
SYMATTR InstName X3
SYMBOL 3iAND 976 416 R0
SYMATTR InstName X4
SYMBOL 3iAND 1280 672 R0
SYMATTR InstName X5
SYMBOL 3iAND 976 960 R0
SYMATTR InstName X6
SYMBOL 3iAND 1296 1216 R0
SYMATTR InstName X7
SYMBOL 3iAND 992 1488 R0
SYMATTR InstName X8
SYMBOL 3iAND 1312 1792 R0
SYMATTR InstName X9
SYMBOL 3iAND 1008 2064 R0
SYMATTR InstName X10
SYMBOL 3iAND 1344 2368 R0
SYMATTR InstName X11
