Version 4
SHEET 1 2952 744
WIRE 864 -64 576 -64
WIRE 1440 -64 864 -64
WIRE 2048 -64 1440 -64
WIRE 2656 -64 2048 -64
WIRE 896 0 576 0
WIRE 1472 0 896 0
WIRE 2080 0 1472 0
WIRE 2560 0 2080 0
WIRE 928 64 576 64
WIRE 1520 64 928 64
WIRE 1984 64 1520 64
WIRE 2592 64 1984 64
WIRE 960 128 576 128
WIRE 1408 128 960 128
WIRE 2016 128 1408 128
WIRE 2624 128 2016 128
WIRE 1072 256 1072 224
WIRE 1632 272 1632 240
WIRE 1040 288 1040 256
WIRE 2192 288 2192 256
WIRE 1600 304 1600 272
WIRE 2768 304 2768 256
WIRE 2160 320 2160 288
WIRE 2736 336 2736 304
WIRE 960 352 960 128
WIRE 1520 368 1520 64
WIRE 928 384 928 64
WIRE 960 384 928 384
WIRE 2080 384 2080 0
WIRE 1184 400 1136 400
WIRE 1472 400 1472 0
WIRE 1520 400 1472 400
WIRE 2656 400 2656 -64
WIRE 896 416 896 0
WIRE 960 416 896 416
WIRE 1744 416 1696 416
WIRE 2048 416 2048 -64
WIRE 2080 416 2048 416
WIRE 1440 432 1440 -64
WIRE 1520 432 1440 432
WIRE 2288 432 2256 432
WIRE 2624 432 2624 128
WIRE 2656 432 2624 432
WIRE 864 448 864 -64
WIRE 960 448 864 448
WIRE 2016 448 2016 128
WIRE 2080 448 2016 448
WIRE 2864 448 2832 448
WIRE 1408 464 1408 128
WIRE 1520 464 1408 464
WIRE 2592 464 2592 64
WIRE 2656 464 2592 464
WIRE 1984 480 1984 64
WIRE 2080 480 1984 480
WIRE 2560 496 2560 0
WIRE 2656 496 2560 496
WIRE 1040 608 1040 512
WIRE 1040 608 576 608
WIRE 1600 608 1600 528
WIRE 1600 608 1040 608
WIRE 2160 608 2160 544
WIRE 2160 608 1600 608
WIRE 2736 608 2736 560
WIRE 2736 608 2160 608
WIRE 1072 672 1072 512
WIRE 1072 672 576 672
WIRE 1632 672 1632 528
WIRE 1632 672 1072 672
WIRE 2192 672 2192 544
WIRE 2192 672 1632 672
WIRE 2768 672 2768 560
WIRE 2768 672 2192 672
FLAG 576 -64 A3
IOPIN 576 -64 In
FLAG 576 0 A2
IOPIN 576 0 In
FLAG 576 64 A1
IOPIN 576 64 In
FLAG 576 128 A0
IOPIN 576 128 In
FLAG 1040 256 Vdd
IOPIN 1040 256 In
FLAG 1600 272 Vdd
IOPIN 1600 272 In
FLAG 2160 288 Vdd
IOPIN 2160 288 In
FLAG 2736 304 Vdd
IOPIN 2736 304 In
FLAG 1184 400 Y0
IOPIN 1184 400 Out
FLAG 1744 416 Y1
IOPIN 1744 416 Out
FLAG 2288 432 Y2
IOPIN 2288 432 Out
FLAG 2864 448 Y3
IOPIN 2864 448 Out
FLAG 576 608 B1
IOPIN 576 608 In
FLAG 576 672 B0
IOPIN 576 672 In
FLAG 1072 224 Gnd
IOPIN 1072 224 In
FLAG 1632 240 Gnd
IOPIN 1632 240 In
FLAG 2192 256 Gnd
IOPIN 2192 256 In
FLAG 2768 256 Gnd
IOPIN 2768 256 In
SYMBOL 41_MUX 1072 384 R0
SYMATTR InstName X1
SYMBOL 41_MUX 1632 400 R0
SYMATTR InstName X2
SYMBOL 41_MUX 2192 416 R0
SYMATTR InstName X3
SYMBOL 41_MUX 2768 432 R0
SYMATTR InstName X4
