Version 4
SHEET 1 1000 680
WIRE -736 0 -736 -96
WIRE -704 0 -704 -96
WIRE -240 0 -240 -96
WIRE -208 0 -208 -96
WIRE 256 0 256 -96
WIRE 288 0 288 -96
WIRE 720 0 720 -96
WIRE 752 0 752 -96
WIRE -800 112 -864 112
WIRE -592 112 -640 112
WIRE -304 112 -368 112
WIRE -64 112 -144 112
WIRE 192 112 112 112
WIRE 416 112 352 112
WIRE 656 112 560 112
WIRE 896 112 816 112
WIRE -720 336 -720 256
WIRE -224 336 -224 256
WIRE 272 336 272 256
WIRE 736 336 736 256
FLAG 736 336 Y0
IOPIN 736 336 Out
FLAG 272 336 Y1
IOPIN 272 336 Out
FLAG -224 336 Y2
IOPIN -224 336 Out
FLAG -720 336 Y3
IOPIN -720 336 Out
FLAG 752 -96 A0
IOPIN 752 -96 In
FLAG 288 -96 A1
IOPIN 288 -96 In
FLAG -208 -96 A2
IOPIN -208 -96 In
FLAG -704 -96 A3
IOPIN -704 -96 In
FLAG 720 -96 B0
IOPIN 720 -96 In
FLAG 256 -96 B1
IOPIN 256 -96 In
FLAG -240 -96 B2
IOPIN -240 -96 In
FLAG -736 -96 B3
IOPIN -736 -96 In
FLAG -592 112 Vdd
IOPIN -592 112 In
FLAG -64 112 Vdd
IOPIN -64 112 In
FLAG 416 112 Vdd
IOPIN 416 112 In
FLAG 896 112 Vdd
IOPIN 896 112 In
FLAG 560 112 Gnd
IOPIN 560 112 In
FLAG 112 112 Gnd
IOPIN 112 112 In
FLAG -368 112 Gnd
IOPIN -368 112 In
FLAG -864 112 Gnd
IOPIN -864 112 In
SYMBOL nand 752 112 R90
SYMATTR InstName X1
SYMBOL nand 288 112 R90
SYMATTR InstName X2
SYMBOL nand -208 112 R90
SYMATTR InstName X3
SYMBOL nand -704 112 R90
SYMATTR InstName X4
