Version 4
SHEET 1 1160 680
WIRE -432 128 -432 64
WIRE -400 128 -400 64
WIRE -16 128 -16 64
WIRE 16 128 16 64
WIRE 432 128 432 64
WIRE 464 128 464 64
WIRE 896 128 896 64
WIRE 928 128 928 64
WIRE -480 192 -576 192
WIRE -288 192 -352 192
WIRE -64 192 -128 192
WIRE 112 192 64 192
WIRE 384 192 320 192
WIRE 576 192 512 192
WIRE 848 192 784 192
WIRE 1056 192 976 192
WIRE -416 288 -416 240
WIRE 0 288 0 240
WIRE 448 288 448 240
WIRE 912 288 912 240
FLAG -400 64 A3
IOPIN -400 64 In
FLAG -432 64 B3
IOPIN -432 64 In
FLAG -16 64 B2
IOPIN -16 64 In
FLAG 16 64 A2
IOPIN 16 64 In
FLAG 432 64 B1
IOPIN 432 64 In
FLAG 464 64 A1
IOPIN 464 64 In
FLAG 896 64 B0
IOPIN 896 64 In
FLAG 928 64 A0
IOPIN 928 64 In
FLAG 784 192 Gnd
IOPIN 784 192 In
FLAG 320 192 Gnd
IOPIN 320 192 In
FLAG -128 192 Gnd
IOPIN -128 192 In
FLAG -576 192 Gnd
IOPIN -576 192 In
FLAG -416 288 Y3
IOPIN -416 288 Out
FLAG -288 192 Vdd
IOPIN -288 192 In
FLAG 0 288 Y2
IOPIN 0 288 Out
FLAG 112 192 Vdd
IOPIN 112 192 In
FLAG 448 288 Y1
IOPIN 448 288 Out
FLAG 576 192 Vdd
IOPIN 576 192 In
FLAG 912 288 Y0
IOPIN 912 288 Out
FLAG 1056 192 Vdd
IOPIN 1056 192 In
SYMBOL OR 480 192 R90
SYMATTR InstName X1
SYMBOL OR 944 192 R90
SYMATTR InstName X2
SYMBOL OR 32 192 R90
SYMATTR InstName X3
SYMBOL OR -384 192 R90
SYMATTR InstName X4
