Version 4
SHEET 1 1776 1012
WIRE 1280 96 1280 32
WIRE 1088 176 1008 176
WIRE 1520 176 1440 176
WIRE 1120 192 928 192
WIRE 1088 208 848 208
WIRE 1520 208 1440 208
WIRE 1120 224 768 224
WIRE 1520 240 1440 240
WIRE 1120 272 768 272
WIRE 1520 272 1440 272
WIRE 1088 288 848 288
WIRE 1120 304 928 304
WIRE 1664 304 1488 304
WIRE 1088 320 1008 320
WIRE 1200 336 1152 336
WIRE 1280 480 1280 400
FLAG 1344 -192 Vdd
IOPIN 1344 -192 In
FLAG 1344 -112 0
FLAG -64 -160 A0
IOPIN -64 -160 In
FLAG -80 96 A1
IOPIN -80 96 In
FLAG -96 336 A2
IOPIN -96 336 In
FLAG -96 608 A3
IOPIN -96 608 In
FLAG 176 -160 B0
IOPIN 176 -160 In
FLAG 160 96 B1
IOPIN 160 96 In
FLAG 160 336 B2
IOPIN 160 336 In
FLAG 160 592 B3
IOPIN 160 592 In
FLAG -64 -80 0
FLAG 176 -80 0
FLAG -80 176 0
FLAG 160 176 0
FLAG -96 416 0
FLAG 160 416 0
FLAG 160 672 0
FLAG -96 688 0
FLAG 1552 -208 Cin
IOPIN 1552 -208 In
FLAG 1552 -128 0
FLAG 1008 176 A0
IOPIN 1008 176 In
FLAG 928 192 A1
IOPIN 928 192 In
FLAG 848 208 A2
IOPIN 848 208 In
FLAG 768 224 A3
IOPIN 768 224 In
FLAG 1008 320 B3
IOPIN 1008 320 In
FLAG 928 304 B2
IOPIN 928 304 In
FLAG 848 288 B1
IOPIN 848 288 In
FLAG 768 272 B0
IOPIN 768 272 In
FLAG 1280 32 Vdd
IOPIN 1280 32 In
FLAG 1280 480 0
FLAG 1520 176 S0
IOPIN 1520 176 Out
FLAG 1520 208 S1
IOPIN 1520 208 Out
FLAG 1520 240 S2
IOPIN 1520 240 Out
FLAG 1520 272 S3
IOPIN 1520 272 Out
FLAG 1664 304 Cout
IOPIN 1664 304 Out
FLAG 1152 336 Cin
IOPIN 1152 336 In
SYMBOL voltage 1344 -208 R0
WINDOW 123 0 0 Left 0
WINDOW 39 0 0 Left 0
SYMATTR InstName V1
SYMATTR Value 1
SYMBOL voltage -64 -176 R0
WINDOW 123 0 0 Left 0
WINDOW 39 0 0 Left 0
SYMATTR InstName V3
SYMATTR Value 1
SYMBOL voltage -80 80 R0
WINDOW 123 0 0 Left 0
WINDOW 39 0 0 Left 0
SYMATTR InstName V4
SYMATTR Value 1
SYMBOL voltage -96 320 R0
WINDOW 123 0 0 Left 0
WINDOW 39 0 0 Left 0
SYMATTR InstName V5
SYMATTR Value 1
SYMBOL voltage -96 592 R0
WINDOW 123 0 0 Left 0
WINDOW 39 0 0 Left 0
SYMATTR InstName V6
SYMATTR Value 1
SYMBOL voltage 176 -176 R0
WINDOW 123 0 0 Left 0
WINDOW 39 0 0 Left 0
SYMATTR InstName V7
SYMATTR Value 1
SYMBOL voltage 160 80 R0
WINDOW 123 0 0 Left 0
WINDOW 39 0 0 Left 0
SYMATTR InstName V8
SYMATTR Value 0
SYMBOL voltage 160 320 R0
WINDOW 123 0 0 Left 0
WINDOW 39 0 0 Left 0
SYMATTR InstName V9
SYMATTR Value 0
SYMBOL voltage 160 576 R0
WINDOW 123 0 0 Left 0
WINDOW 39 0 0 Left 0
SYMATTR InstName V10
SYMATTR Value 1
SYMBOL voltage 1552 -224 R0
WINDOW 123 0 0 Left 0
WINDOW 39 0 0 Left 0
SYMATTR InstName V11
SYMATTR Value 0
SYMBOL 4i_adder 1280 240 R0
SYMATTR InstName X1
TEXT 1080 -168 Left 2 !.tran 2
