Version 4
SHEET 1 2120 680
WIRE -96 -240 -192 -240
WIRE -112 -192 -192 -192
WIRE 528 -192 -112 -192
WIRE -128 -144 -192 -144
WIRE 496 -144 -128 -144
WIRE 1152 -144 496 -144
WIRE -144 -96 -192 -96
WIRE 432 -96 -144 -96
WIRE 464 -96 432 -96
WIRE 1056 -96 464 -96
WIRE 1088 -96 1056 -96
WIRE 1120 -96 1088 -96
WIRE 1728 -96 1120 -96
WIRE 1760 -96 1728 -96
WIRE 1792 -96 1760 -96
WIRE 1824 -96 1792 -96
WIRE 16 48 16 16
WIRE 640 48 640 16
WIRE 1264 48 1264 16
WIRE 1936 48 1936 16
WIRE -16 80 -16 48
WIRE 608 80 608 48
WIRE 1232 80 1232 48
WIRE 1904 80 1904 48
WIRE -96 144 -96 -240
WIRE 528 144 528 -192
WIRE 1152 144 1152 -144
WIRE 1824 144 1824 -96
WIRE -112 176 -112 -192
WIRE -96 176 -112 176
WIRE 496 176 496 -144
WIRE 528 176 496 176
WIRE 1120 176 1120 -96
WIRE 1152 176 1120 176
WIRE 1792 176 1792 -96
WIRE 1824 176 1792 176
WIRE 112 192 80 192
WIRE 736 192 704 192
WIRE 1360 192 1328 192
WIRE 2032 192 2000 192
WIRE -128 208 -128 -144
WIRE -96 208 -128 208
WIRE 464 208 464 -96
WIRE 528 208 464 208
WIRE 1088 208 1088 -96
WIRE 1152 208 1088 208
WIRE 1760 208 1760 -96
WIRE 1824 208 1760 208
WIRE -144 240 -144 -96
WIRE -96 240 -144 240
WIRE 432 240 432 -96
WIRE 528 240 432 240
WIRE 1056 240 1056 -96
WIRE 1152 240 1056 240
WIRE 1728 240 1728 -96
WIRE 1824 240 1728 240
WIRE -16 368 -16 304
WIRE -16 368 -192 368
WIRE 608 368 608 304
WIRE 608 368 -16 368
WIRE 1232 368 1232 304
WIRE 1232 368 608 368
WIRE 1904 368 1904 304
WIRE 1904 368 1232 368
WIRE 16 416 16 304
WIRE 16 416 -192 416
WIRE 640 416 640 304
WIRE 640 416 16 416
WIRE 1264 416 1264 304
WIRE 1264 416 640 416
WIRE 1936 416 1936 304
WIRE 1936 416 1264 416
FLAG -192 -240 A0
IOPIN -192 -240 In
FLAG -192 -192 A1
IOPIN -192 -192 In
FLAG -192 -144 A2
IOPIN -192 -144 In
FLAG -192 -96 A3
IOPIN -192 -96 In
FLAG -192 368 B1
IOPIN -192 368 In
FLAG -192 416 B0
IOPIN -192 416 In
FLAG -16 48 Vdd
IOPIN -16 48 In
FLAG 608 48 Vdd
IOPIN 608 48 In
FLAG 1232 48 Vdd
IOPIN 1232 48 In
FLAG 1904 48 Vdd
IOPIN 1904 48 In
FLAG 112 192 Y0
IOPIN 112 192 Out
FLAG 736 192 Y1
IOPIN 736 192 Out
FLAG 1360 192 Y2
IOPIN 1360 192 Out
FLAG 2032 192 Y3
IOPIN 2032 192 Out
FLAG 1936 16 Gnd
IOPIN 1936 16 In
FLAG 1264 16 Gnd
IOPIN 1264 16 In
FLAG 640 16 Gnd
IOPIN 640 16 In
FLAG 16 16 Gnd
IOPIN 16 16 In
SYMBOL 41_MUX 16 176 R0
SYMATTR InstName X1
SYMBOL 41_MUX 640 176 R0
SYMATTR InstName X2
SYMBOL 41_MUX 1264 176 R0
SYMATTR InstName X3
SYMBOL 41_MUX 1936 176 R0
SYMATTR InstName X4
