Version 4
SHEET 1 880 680
WIRE 240 80 240 32
WIRE 144 144 96 144
WIRE 400 160 336 160
WIRE 144 176 96 176
WIRE 240 288 240 240
FLAG 96 144 A
IOPIN 96 144 In
FLAG 96 176 B
IOPIN 96 176 In
FLAG 240 32 Vdd
IOPIN 240 32 In
FLAG 400 160 Y
IOPIN 400 160 Out
FLAG 240 288 0
FLAG -144 -32 Vdd
IOPIN -144 -32 In
FLAG -144 48 0
FLAG -288 192 0
FLAG -288 352 0
FLAG -288 112 A
IOPIN -288 112 In
FLAG -288 272 B
IOPIN -288 272 In
SYMBOL and_symbol 240 160 R0
SYMATTR InstName X1
SYMBOL voltage -144 -48 R0
WINDOW 123 0 0 Left 0
WINDOW 39 0 0 Left 0
SYMATTR InstName V1
SYMATTR Value 1
SYMBOL voltage -288 96 R0
WINDOW 123 0 0 Left 0
WINDOW 39 0 0 Left 0
SYMATTR InstName V2
SYMATTR Value PULSE(0 1 2 1n 1n 2 4)
SYMBOL voltage -288 256 R0
WINDOW 123 0 0 Left 0
WINDOW 39 0 0 Left 0
SYMATTR InstName V3
SYMATTR Value PULSE(0 1 1 1n 1n 1 2)
TEXT -8 -16 Left 2 !.tran 4
