Version 4
SHEET 1 880 680
FLAG -192 -48 0
FLAG -192 144 0
FLAG -192 -128 Vdd
IOPIN -192 -128 In
FLAG -192 64 E
IOPIN -192 64 In
FLAG -192 336 0
FLAG -192 256 D
IOPIN -192 256 In
FLAG 192 80 Vdd
IOPIN 192 80 In
FLAG 192 256 0
FLAG 80 128 D
IOPIN 80 128 In
FLAG 80 176 E
IOPIN 80 176 In
FLAG 304 128 Q
IOPIN 304 128 Out
FLAG 304 176 ~Q
IOPIN 304 176 Out
SYMBOL D_LATCH 208 160 R0
SYMATTR InstName X1
SYMBOL voltage -192 -144 R0
WINDOW 123 0 0 Left 0
WINDOW 39 0 0 Left 0
SYMATTR InstName V1
SYMATTR Value 1
SYMBOL voltage -192 48 R0
WINDOW 123 0 0 Left 0
WINDOW 39 0 0 Left 0
SYMATTR InstName V2
SYMATTR Value 1
SYMBOL voltage -192 240 R0
WINDOW 123 0 0 Left 0
WINDOW 39 0 0 Left 0
SYMATTR InstName V3
SYMATTR Value 1
TEXT -120 -40 Left 2 !.tran 2
