Version 4
SHEET 1 1488 856
WIRE 112 48 112 16
WIRE 640 64 640 32
WIRE 1200 80 1200 32
WIRE 544 128 224 128
WIRE 1120 144 736 144
WIRE 544 160 480 160
WIRE 1360 160 1312 160
WIRE 1392 160 1360 160
WIRE 1120 176 1056 176
WIRE 112 224 112 192
WIRE 640 256 640 224
WIRE 1200 272 1200 240
WIRE 1360 368 1360 160
WIRE 1360 368 1072 368
WIRE 480 384 480 160
WIRE 480 384 384 384
WIRE 1056 400 1056 176
WIRE 1360 400 1056 400
WIRE 1216 544 1216 512
WIRE 640 560 640 528
WIRE 1072 608 1072 368
WIRE 1136 608 1072 608
WIRE 480 624 480 384
WIRE 544 624 480 624
WIRE 1360 624 1360 400
WIRE 1360 624 1328 624
WIRE 1392 624 1360 624
WIRE 1136 640 736 640
WIRE 0 656 0 128
WIRE 0 656 -48 656
WIRE 544 656 0 656
WIRE 1216 736 1216 704
WIRE 640 752 640 720
FLAG 640 528 Vdd
IOPIN 640 528 In
FLAG 1216 512 Vdd
IOPIN 1216 512 In
FLAG 1200 32 Vdd
IOPIN 1200 32 In
FLAG 640 32 Vdd
IOPIN 640 32 In
FLAG 112 16 Vdd
IOPIN 112 16 In
FLAG 384 384 E
IOPIN 384 384 In
FLAG -48 656 D
IOPIN -48 656 In
FLAG 1392 160 Q
IOPIN 1392 160 Out
FLAG 1392 624 ~Q
IOPIN 1392 624 Out
FLAG 112 224 Gnd
IOPIN 112 224 In
FLAG 640 256 Gnd
IOPIN 640 256 In
FLAG 1200 272 Gnd
IOPIN 1200 272 In
FLAG 640 752 Gnd
IOPIN 640 752 In
FLAG 1216 736 Gnd
IOPIN 1216 736 In
SYMBOL NOT 112 112 R0
SYMATTR InstName X1
SYMBOL and_symbol 640 144 R0
SYMATTR InstName X2
SYMBOL and_symbol 640 640 R0
SYMATTR InstName X3
SYMBOL nor 1200 144 R0
SYMATTR InstName X4
SYMBOL nor 1216 608 R0
SYMATTR InstName X5
