Version 4
SHEET 1 880 772
WIRE 320 -32 320 -96
WIRE 384 -32 384 -96
WIRE 448 -32 448 -96
WIRE 208 64 112 64
WIRE 208 96 112 96
WIRE 208 128 112 128
WIRE 656 144 560 144
WIRE 208 160 112 160
WIRE 656 176 560 176
WIRE 208 192 112 192
WIRE 656 208 560 208
WIRE 208 224 112 224
WIRE 656 240 560 240
WIRE 208 256 112 256
WIRE 208 288 112 288
WIRE 304 464 304 400
WIRE 336 464 336 400
WIRE 400 464 400 400
WIRE 432 464 432 400
WIRE 464 464 464 400
FLAG 112 64 A00
IOPIN 112 64 In
FLAG 112 96 A11
IOPIN 112 96 In
FLAG 112 128 A22
IOPIN 112 128 In
FLAG 112 160 A33
IOPIN 112 160 In
FLAG 112 192 B00
IOPIN 112 192 In
FLAG 112 224 B11
IOPIN 112 224 In
FLAG 112 256 B22
IOPIN 112 256 In
FLAG 112 288 B33
IOPIN 112 288 In
FLAG 304 464 D1
IOPIN 304 464 In
FLAG 336 464 D0
IOPIN 336 464 In
FLAG 400 464 S2
IOPIN 400 464 In
FLAG 432 464 S1
IOPIN 432 464 In
FLAG 464 464 S0
IOPIN 464 464 In
FLAG 320 -96 E
IOPIN 320 -96 In
FLAG 384 -96 Vdd
IOPIN 384 -96 In
FLAG 448 -96 0
FLAG 656 144 Y0
IOPIN 656 144 Out
FLAG 656 176 Y1
IOPIN 656 176 Out
FLAG 656 208 Y2
IOPIN 656 208 Out
FLAG 656 240 Y3
IOPIN 656 240 Out
FLAG -736 -272 0
FLAG -752 0 0
FLAG -576 0 0
FLAG -416 0 0
FLAG -256 0 0
FLAG -240 256 0
FLAG -400 256 0
FLAG -560 256 0
FLAG -736 256 0
FLAG -736 -352 Vdd
IOPIN -736 -352 In
FLAG -752 -80 A33
IOPIN -752 -80 In
FLAG -576 -80 A22
IOPIN -576 -80 In
FLAG -416 -80 A11
IOPIN -416 -80 In
FLAG -256 -80 A00
IOPIN -256 -80 In
FLAG -736 176 B33
IOPIN -736 176 In
FLAG -560 176 B22
IOPIN -560 176 In
FLAG -400 176 B11
IOPIN -400 176 In
FLAG -240 176 B00
IOPIN -240 176 In
FLAG -672 496 0
FLAG -672 416 S2
IOPIN -672 416 In
FLAG -480 496 0
FLAG -480 416 S1
IOPIN -480 416 In
FLAG -320 496 0
FLAG -320 416 S0
IOPIN -320 416 In
FLAG -464 -272 0
FLAG -464 -352 E
IOPIN -464 -352 In
FLAG -592 752 0
FLAG -592 672 D1
IOPIN -592 672 In
FLAG -432 752 0
FLAG -432 672 D0
IOPIN -432 672 In
SYMBOL Final_Overall 432 256 R0
SYMATTR InstName X1
SYMBOL voltage -736 -368 R0
WINDOW 123 0 0 Left 0
WINDOW 39 0 0 Left 0
SYMATTR InstName V1
SYMATTR Value 1
SYMBOL voltage -752 -96 R0
WINDOW 123 0 0 Left 0
WINDOW 39 0 0 Left 0
SYMATTR InstName V2
SYMATTR Value 1
SYMBOL voltage -576 -96 R0
WINDOW 123 0 0 Left 0
WINDOW 39 0 0 Left 0
SYMATTR InstName V3
SYMATTR Value 0
SYMBOL voltage -416 -96 R0
WINDOW 123 0 0 Left 0
WINDOW 39 0 0 Left 0
SYMATTR InstName V4
SYMATTR Value 1
SYMBOL voltage -256 -96 R0
WINDOW 123 0 0 Left 0
WINDOW 39 0 0 Left 0
SYMATTR InstName V5
SYMATTR Value 0
SYMBOL voltage -736 160 R0
WINDOW 123 0 0 Left 0
WINDOW 39 0 0 Left 0
SYMATTR InstName V6
SYMATTR Value 0
SYMBOL voltage -560 160 R0
WINDOW 123 0 0 Left 0
WINDOW 39 0 0 Left 0
SYMATTR InstName V7
SYMATTR Value 0
SYMBOL voltage -400 160 R0
WINDOW 123 0 0 Left 0
WINDOW 39 0 0 Left 0
SYMATTR InstName V8
SYMATTR Value 1
SYMBOL voltage -240 160 R0
WINDOW 123 0 0 Left 0
WINDOW 39 0 0 Left 0
SYMATTR InstName V9
SYMATTR Value 1
SYMBOL voltage -672 400 R0
WINDOW 123 0 0 Left 0
WINDOW 39 0 0 Left 0
SYMATTR InstName V10
SYMATTR Value 1
SYMBOL voltage -480 400 R0
WINDOW 123 0 0 Left 0
WINDOW 39 0 0 Left 0
SYMATTR InstName V11
SYMATTR Value 1
SYMBOL voltage -320 400 R0
WINDOW 123 0 0 Left 0
WINDOW 39 0 0 Left 0
SYMATTR InstName V12
SYMATTR Value 1
SYMBOL voltage -592 656 R0
WINDOW 123 0 0 Left 0
WINDOW 39 0 0 Left 0
SYMATTR InstName V13
SYMATTR Value 0
SYMBOL voltage -432 656 R0
WINDOW 123 0 0 Left 0
WINDOW 39 0 0 Left 0
SYMATTR InstName V14
SYMATTR Value 0
SYMBOL voltage -464 -368 R0
WINDOW 123 0 0 Left 0
WINDOW 39 0 0 Left 0
SYMATTR InstName V15
SYMATTR Value 1
TEXT -288 -304 Left 2 !.tran 2
