Version 4
SHEET 1 1360 920
WIRE 160 -16 160 -96
WIRE 992 0 992 -96
WIRE 48 32 -96 32
WIRE 368 48 256 48
WIRE 880 48 368 48
WIRE 48 64 -96 64
WIRE 1248 64 1088 64
WIRE 880 80 464 80
WIRE 464 176 464 80
WIRE 464 176 432 176
WIRE 160 208 160 112
WIRE 624 208 624 160
WIRE 992 224 992 128
WIRE 464 272 464 176
WIRE 528 272 464 272
WIRE 848 288 720 288
WIRE 368 304 368 48
WIRE 528 304 368 304
WIRE 992 384 992 368
WIRE 624 400 624 368
WIRE 848 416 848 288
WIRE 912 416 848 416
WIRE 1248 432 1104 432
WIRE 912 448 848 448
WIRE 992 544 992 480
WIRE 624 592 624 576
WIRE 528 656 384 656
WIRE 848 672 848 448
WIRE 848 672 720 672
WIRE 528 688 384 688
WIRE 624 816 624 752
FLAG -96 32 A
IOPIN -96 32 In
FLAG -96 64 B
IOPIN -96 64 In
FLAG 432 176 Cin
IOPIN 432 176 In
FLAG 384 656 A
IOPIN 384 656 In
FLAG 384 688 B
IOPIN 384 688 In
FLAG 1248 64 Sum
IOPIN 1248 64 Out
FLAG 1248 432 Cout
IOPIN 1248 432 Out
FLAG 160 -96 Vdd
IOPIN 160 -96 In
FLAG 624 160 Vdd
IOPIN 624 160 In
FLAG 992 -96 Vdd
IOPIN 992 -96 In
FLAG 992 368 Vdd
IOPIN 992 368 In
FLAG 624 576 Vdd
IOPIN 624 576 In
FLAG 160 208 Gnd
IOPIN 160 208 In
FLAG 624 400 Gnd
IOPIN 624 400 In
FLAG 624 816 Gnd
IOPIN 624 816 In
FLAG 992 544 Gnd
IOPIN 992 544 In
FLAG 992 224 Gnd
IOPIN 992 224 In
SYMBOL XOR1 128 32 R0
SYMATTR InstName X1
SYMBOL XOR1 960 48 R0
SYMATTR InstName X2
SYMBOL and_symbol 624 288 R0
SYMATTR InstName X3
SYMBOL and_symbol 624 672 R0
SYMATTR InstName X4
SYMBOL or_symbol 960 432 R0
SYMATTR InstName X5
