Version 4
SHEET 1 880 680
WIRE 240 96 240 32
WIRE 128 160 64 160
WIRE 448 176 384 176
WIRE 128 192 64 192
WIRE 240 304 240 256
WIRE 0 0 0 0
FLAG -400 -32 Vdd
IOPIN -400 -32 In
FLAG -400 112 A
IOPIN -400 112 In
FLAG -400 272 B
IOPIN -400 272 In
FLAG -400 48 0
FLAG -400 192 0
FLAG -400 352 0
FLAG 64 160 A
IOPIN 64 160 In
FLAG 64 192 B
IOPIN 64 192 In
FLAG 240 32 Vdd
IOPIN 240 32 In
FLAG 240 304 0
FLAG 448 176 Y
IOPIN 448 176 Out
SYMBOL nand 240 160 R0
SYMATTR InstName X1
SYMBOL voltage -400 -48 R0
SYMATTR InstName V1
SYMATTR Value 1
SYMBOL voltage -400 96 R0
WINDOW 123 0 0 Left 0
WINDOW 39 0 0 Left 0
SYMATTR InstName V2
SYMATTR Value PULSE(0 1 2 1n 1n 2 4)
SYMBOL voltage -400 256 R0
WINDOW 123 0 0 Left 0
WINDOW 39 0 0 Left 0
SYMATTR InstName V3
SYMATTR Value PULSE(0 1 1 1n 1n 1 2)
TEXT -464 376 Left 2 !.tran 4
