Version 4
SHEET 1 880 680
WIRE 256 96 256 16
WIRE 176 160 96 160
WIRE 432 176 368 176
WIRE 176 192 96 192
WIRE 256 320 256 256
FLAG 96 160 A
IOPIN 96 160 In
FLAG 96 192 B
IOPIN 96 192 In
FLAG 256 16 Vdd
IOPIN 256 16 In
FLAG 432 176 Y
IOPIN 432 176 Out
FLAG 256 320 0
FLAG -144 32 Vdd
IOPIN -144 32 In
FLAG -144 176 A
IOPIN -144 176 In
FLAG -144 336 B
IOPIN -144 336 In
FLAG -144 112 0
FLAG -144 256 0
FLAG -144 416 0
SYMBOL nor 256 160 R0
SYMATTR InstName X1
SYMBOL voltage -144 16 R0
SYMATTR InstName V1
SYMATTR Value 1
SYMBOL voltage -144 160 R0
WINDOW 123 0 0 Left 0
WINDOW 39 0 0 Left 0
SYMATTR InstName V2
SYMATTR Value PULSE(0 1 2 1n 1n 2 4)
SYMBOL voltage -144 320 R0
WINDOW 123 0 0 Left 0
WINDOW 39 0 0 Left 0
SYMATTR InstName V3
SYMATTR Value PULSE(0 1 1 1n 1n 1 2)
TEXT -208 440 Left 2 !.tran 4
