Version 4
SHEET 1 880 680
WIRE 368 128 368 48
WIRE 256 208 208 208
WIRE 576 208 480 208
WIRE 368 320 368 272
FLAG -96 48 Vdd
IOPIN -96 48 In
FLAG -272 208 A
IOPIN -272 208 In
FLAG -96 128 0
FLAG -272 288 0
FLAG 368 320 0
FLAG 208 208 A
IOPIN 208 208 In
FLAG 576 208 ~A
IOPIN 576 208 Out
FLAG 368 48 Vdd
IOPIN 368 48 In
SYMBOL NOT 368 192 R0
SYMATTR InstName X1
SYMBOL voltage -96 32 R0
SYMATTR InstName V1
SYMATTR Value 1
SYMBOL voltage -272 192 R0
WINDOW 123 0 0 Left 0
WINDOW 39 0 0 Left 0
SYMATTR InstName V2
SYMATTR Value PULSE(0 1 1 1n 1n 1 2)
TEXT -160 344 Left 2 !.tran 2
