Version 4
SHEET 1 880 680
WIRE 416 112 416 64
WIRE 352 160 304 160
WIRE 528 176 464 176
WIRE 352 192 304 192
WIRE 416 288 416 240
FLAG 304 160 A
IOPIN 304 160 In
FLAG 304 192 B
IOPIN 304 192 In
FLAG 416 64 Vdd
IOPIN 416 64 In
FLAG 528 176 Y
IOPIN 528 176 Out
FLAG 416 288 0
FLAG -128 -48 Vdd
IOPIN -128 -48 In
FLAG -128 32 0
FLAG -272 176 0
FLAG -272 336 0
FLAG -272 96 A
IOPIN -272 96 In
FLAG -272 256 B
IOPIN -272 256 In
SYMBOL OR 416 144 R0
SYMATTR InstName X1
SYMBOL voltage -128 -64 R0
WINDOW 123 0 0 Left 0
WINDOW 39 0 0 Left 0
SYMATTR InstName V1
SYMATTR Value 1
SYMBOL voltage -272 80 R0
WINDOW 123 0 0 Left 0
WINDOW 39 0 0 Left 0
SYMATTR InstName V2
SYMATTR Value PULSE(0 1 2 1n 1n 2 4)
SYMBOL voltage -272 240 R0
WINDOW 123 0 0 Left 0
WINDOW 39 0 0 Left 0
SYMATTR InstName V3
SYMATTR Value PULSE(0 1 1 1n 1n 1 2)
TEXT 8 -32 Left 2 !.tran 4
